Material: organic / C6H6 - benzene / Myers
Optical constants. T. L. Myers, R. G. Tonkyn, T. O. Danby, M. S. Taubman, B. E. Bernacki, J. C. Birnbaum, S. W. Sharpe, T. J. Johnson. Accurate measurement of the optical constants n and k for a series of 57 inorganic and organic liquids for optical modeling and detection, Appl. Spectrosc. 72, 535-550 (2018) (see Supplemental Material for numerical data)
Comments: 26 Â°C
Specs: {"n_absolute": true, "wavelength_vacuum": true, "temperature": "26 Â°C"}
wavelength (um)	n	k
1.28246E+00	1.47776E+00	2.67813E-05
1.28556E+00	1.47779E+00	2.80413E-05
1.28868E+00	1.47779E+00	2.81047E-05
1.29181E+00	1.47780E+00	2.78516E-05
1.29495E+00	1.47780E+00	2.80489E-05
1.29812E+00	1.47780E+00	2.77534E-05
1.30129E+00	1.47780E+00	2.80741E-05
1.30448E+00	1.47780E+00	2.85928E-05
1.30769E+00	1.47780E+00	2.74448E-05
1.31091E+00	1.47780E+00	2.77746E-05
1.31415E+00	1.47780E+00	2.67796E-05
1.31741E+00	1.47780E+00	2.62086E-05
1.32068E+00	1.47780E+00	2.47456E-05
1.32397E+00	1.47780E+00	2.56706E-05
1.32727E+00	1.47780E+00	2.41995E-05
1.33059E+00	1.47780E+00	2.50979E-05
1.33393E+00	1.47780E+00	2.43017E-05
1.33728E+00	1.47780E+00	2.23138E-05
1.34066E+00	1.47780E+00	2.23475E-05
1.34404E+00	1.47779E+00	2.18008E-05
1.34745E+00	1.47779E+00	2.18150E-05
1.35087E+00	1.47780E+00	1.73037E-05
1.35431E+00	1.47779E+00	1.38613E-05
1.35777E+00	1.47778E+00	1.66000E-05
1.36124E+00	1.47778E+00	1.94652E-05
1.36474E+00	1.47778E+00	2.04628E-05
1.36825E+00	1.47778E+00	2.06793E-05
1.37178E+00	1.47779E+00	1.25151E-05
1.37533E+00	1.47777E+00	1.61146E-05
1.37889E+00	1.47777E+00	1.93501E-05
1.38248E+00	1.47778E+00	1.63073E-05
1.38608E+00	1.47777E+00	1.44617E-05
1.38970E+00	1.47777E+00	1.70193E-05
1.39334E+00	1.47777E+00	1.82105E-05
1.39700E+00	1.47776E+00	1.93516E-05
1.40068E+00	1.47776E+00	2.06396E-05
1.40438E+00	1.47776E+00	1.84822E-05
1.40810E+00	1.47776E+00	1.78976E-05
1.41184E+00	1.47776E+00	1.87437E-05
1.41559E+00	1.47776E+00	1.76565E-05
1.41937E+00	1.47776E+00	1.78804E-05
1.42317E+00	1.47776E+00	1.62652E-05
1.42699E+00	1.47775E+00	1.64508E-05
1.43083E+00	1.47775E+00	1.70646E-05
1.43469E+00	1.47775E+00	1.82465E-05
1.43857E+00	1.47775E+00	1.70076E-05
1.44247E+00	1.47775E+00	1.53494E-05
1.44639E+00	1.47774E+00	1.44383E-05
1.45034E+00	1.47774E+00	1.29045E-05
1.45430E+00	1.47774E+00	1.29729E-05
1.45829E+00	1.47774E+00	1.33548E-05
1.46230E+00	1.47773E+00	1.33191E-05
1.46633E+00	1.47773E+00	1.41868E-05
1.47039E+00	1.47773E+00	1.28647E-05
1.47446E+00	1.47773E+00	1.33774E-05
1.47856E+00	1.47772E+00	1.28296E-05
1.48269E+00	1.47772E+00	1.30917E-05
1.48683E+00	1.47772E+00	1.21576E-05
1.49100E+00	1.47772E+00	1.30584E-05
1.49519E+00	1.47771E+00	1.24074E-05
1.49941E+00	1.47771E+00	1.23106E-05
1.50365E+00	1.47771E+00	1.14844E-05
1.50791E+00	1.47770E+00	1.22164E-05
1.51220E+00	1.47770E+00	1.24387E-05
1.51651E+00	1.47770E+00	1.24606E-05
1.52085E+00	1.47770E+00	1.11268E-05
1.52521E+00	1.47769E+00	1.11890E-05
1.52959E+00	1.47769E+00	1.03697E-05
1.53401E+00	1.47769E+00	1.01424E-05
1.53844E+00	1.47768E+00	9.04591E-06
1.54291E+00	1.47768E+00	8.75715E-06
1.54740E+00	1.47768E+00	8.71978E-06
1.55191E+00	1.47767E+00	8.55039E-06
1.55645E+00	1.47767E+00	8.02397E-06
1.56102E+00	1.47767E+00	7.83391E-06
1.56562E+00	1.47766E+00	7.38370E-06
1.57024E+00	1.47766E+00	6.67616E-06
1.57489E+00	1.47765E+00	7.00553E-06
1.57957E+00	1.47765E+00	6.01352E-06
1.58427E+00	1.47764E+00	6.22274E-06
1.58901E+00	1.47764E+00	6.82125E-06
1.59377E+00	1.47763E+00	5.86640E-06
1.59856E+00	1.47763E+00	4.86286E-06
1.60338E+00	1.47762E+00	4.07472E-06
1.60823E+00	1.47761E+00	2.77293E-06
1.61310E+00	1.47760E+00	2.18645E-06
1.61801E+00	1.47759E+00	5.75403E-06
1.62295E+00	1.47757E+00	1.44950E-05
1.62792E+00	1.47758E+00	3.98898E-05
1.63292E+00	1.47758E+00	3.17157E-05
1.63794E+00	1.47757E+00	3.49267E-05
1.64300E+00	1.47758E+00	3.51187E-05
1.64810E+00	1.47755E+00	1.44718E-05
1.65322E+00	1.47751E+00	2.14708E-05
1.65837E+00	1.47747E+00	5.25578E-05
1.66356E+00	1.47741E+00	9.94300E-05
1.66878E+00	1.47740E+00	2.77277E-04
1.67403E+00	1.47769E+00	2.76657E-04
1.67932E+00	1.47768E+00	1.82490E-04
1.68464E+00	1.47764E+00	1.28879E-04
1.68999E+00	1.47762E+00	1.94512E-04
1.69538E+00	1.47774E+00	1.14194E-04
1.70080E+00	1.47769E+00	1.00001E-04
1.70626E+00	1.47771E+00	8.50762E-05
1.71175E+00	1.47770E+00	3.71737E-05
1.71728E+00	1.47767E+00	1.64368E-05
1.72284E+00	1.47764E+00	1.90770E-05
1.72844E+00	1.47762E+00	2.26589E-05
1.73408E+00	1.47762E+00	2.75416E-05
1.73975E+00	1.47761E+00	2.18847E-05
1.74546E+00	1.47760E+00	1.74662E-05
1.75121E+00	1.47759E+00	3.20933E-05
1.75699E+00	1.47759E+00	4.69184E-05
1.76282E+00	1.47760E+00	2.54227E-05
1.76868E+00	1.47759E+00	2.41035E-05
1.77458E+00	1.47758E+00	1.14994E-05
1.78052E+00	1.47756E+00	1.99105E-05
1.78650E+00	1.47757E+00	2.30732E-05
1.79252E+00	1.47755E+00	2.13498E-05
1.79859E+00	1.47755E+00	2.00512E-05
1.80469E+00	1.47754E+00	3.02897E-05
1.81083E+00	1.47754E+00	2.69338E-05
1.81702E+00	1.47755E+00	2.05434E-05
1.82325E+00	1.47754E+00	1.36566E-05
1.82952E+00	1.47753E+00	1.08188E-05
1.83584E+00	1.47751E+00	1.18153E-05
1.84220E+00	1.47751E+00	1.83214E-05
1.84860E+00	1.47750E+00	1.55790E-05
1.85505E+00	1.47750E+00	1.41204E-05
1.86154E+00	1.47749E+00	1.95691E-05
1.86808E+00	1.47749E+00	1.77991E-05
1.87466E+00	1.47749E+00	1.58317E-05
1.88130E+00	1.47748E+00	1.16564E-05
1.88797E+00	1.47747E+00	8.70120E-06
1.89470E+00	1.47746E+00	1.02338E-05
1.90147E+00	1.47745E+00	1.90585E-05
1.90830E+00	1.47745E+00	1.84140E-05
1.91517E+00	1.47744E+00	1.08379E-05
1.92209E+00	1.47743E+00	8.86426E-06
1.92906E+00	1.47742E+00	9.09581E-06
1.93609E+00	1.47741E+00	1.01613E-05
1.94316E+00	1.47741E+00	1.34907E-05
1.95029E+00	1.47740E+00	1.27808E-05
1.95746E+00	1.47739E+00	1.04794E-05
1.96469E+00	1.47738E+00	1.16310E-05
1.97198E+00	1.47738E+00	1.33806E-05
1.97932E+00	1.47737E+00	1.27816E-05
1.98671E+00	1.47736E+00	1.12016E-05
1.99416E+00	1.47735E+00	1.13180E-05
2.00167E+00	1.47734E+00	1.43522E-05
2.00923E+00	1.47733E+00	1.14281E-05
2.01685E+00	1.47732E+00	1.12810E-05
2.02453E+00	1.47731E+00	1.06460E-05
2.03226E+00	1.47730E+00	1.17134E-05
2.04006E+00	1.47728E+00	1.34076E-05
2.04792E+00	1.47727E+00	1.28193E-05
2.05583E+00	1.47726E+00	1.84411E-05
2.06381E+00	1.47725E+00	1.99102E-05
2.07185E+00	1.47724E+00	1.32988E-05
2.07995E+00	1.47722E+00	1.12850E-05
2.08812E+00	1.47719E+00	1.40867E-05
2.09635E+00	1.47717E+00	1.52672E-05
2.10465E+00	1.47714E+00	1.79033E-05
2.11301E+00	1.47710E+00	2.67670E-05
2.12144E+00	1.47704E+00	4.65409E-05
2.12993E+00	1.47695E+00	1.37971E-04
2.13850E+00	1.47687E+00	2.87211E-04
2.14713E+00	1.47716E+00	1.85217E-04
2.15583E+00	1.47729E+00	3.65080E-04
2.16461E+00	1.47733E+00	3.51043E-04
2.17346E+00	1.47722E+00	1.99761E-04
2.18237E+00	1.47736E+00	5.00288E-04
2.19137E+00	1.47737E+00	1.07988E-04
2.20043E+00	1.47730E+00	1.67151E-04
2.20958E+00	1.47730E+00	4.59307E-05
2.21879E+00	1.47724E+00	2.66410E-05
2.22809E+00	1.47719E+00	2.66656E-05
2.23746E+00	1.47716E+00	2.75820E-05
2.24692E+00	1.47713E+00	3.33914E-05
2.25645E+00	1.47710E+00	5.28035E-05
2.26606E+00	1.47709E+00	6.12820E-05
2.27576E+00	1.47706E+00	4.39687E-05
2.28554E+00	1.47708E+00	1.11920E-04
2.29541E+00	1.47706E+00	3.41872E-05
2.30536E+00	1.47702E+00	2.90995E-05
2.31539E+00	1.47698E+00	2.78236E-05
2.32552E+00	1.47694E+00	4.26566E-05
2.33573E+00	1.47690E+00	4.84967E-05
2.34603E+00	1.47686E+00	1.19698E-04
2.35643E+00	1.47687E+00	9.78390E-05
2.36692E+00	1.47682E+00	9.90124E-05
2.37750E+00	1.47680E+00	1.16988E-04
2.38817E+00	1.47681E+00	1.21964E-04
2.39895E+00	1.47677E+00	1.19034E-04
2.40982E+00	1.47668E+00	9.95289E-05
2.42078E+00	1.47655E+00	1.10156E-04
2.43185E+00	1.47636E+00	1.73657E-04
2.44302E+00	1.47612E+00	4.34080E-04
2.45430E+00	1.47596E+00	8.20468E-04
2.46568E+00	1.47753E+00	3.33477E-03
2.47716E+00	1.47798E+00	4.84708E-04
2.48875E+00	1.47761E+00	2.67919E-04
2.50046E+00	1.47733E+00	1.25771E-04
2.51227E+00	1.47717E+00	1.18062E-04
2.52419E+00	1.47701E+00	2.09790E-04
2.53623E+00	1.47701E+00	1.42183E-04
2.54838E+00	1.47710E+00	1.22152E-04
2.56065E+00	1.47700E+00	8.94466E-05
2.57304E+00	1.47695E+00	7.83341E-05
2.58555E+00	1.47690E+00	5.53563E-05
2.59818E+00	1.47684E+00	4.25946E-05
2.61094E+00	1.47678E+00	4.03548E-05
2.62382E+00	1.47673E+00	3.53830E-05
2.63683E+00	1.47665E+00	6.04762E-05
2.64997E+00	1.47661E+00	6.50503E-05
2.66324E+00	1.47656E+00	6.81797E-05
2.67664E+00	1.47651E+00	1.11540E-04
2.69018E+00	1.47641E+00	1.22387E-04
2.70386E+00	1.47619E+00	5.66035E-04
2.71767E+00	1.47671E+00	2.05349E-04
2.73163E+00	1.47648E+00	9.74122E-05
2.74573E+00	1.47650E+00	8.77306E-04
2.75998E+00	1.47654E+00	1.26446E-04
2.77438E+00	1.47666E+00	1.93511E-04
2.78893E+00	1.47651E+00	4.27814E-05
2.80363E+00	1.47639E+00	1.92949E-05
2.81849E+00	1.47630E+00	1.75600E-05
2.83351E+00	1.47622E+00	1.62246E-05
2.84869E+00	1.47615E+00	2.29453E-05
2.86403E+00	1.47604E+00	3.88012E-05
2.87953E+00	1.47598E+00	3.02803E-05
2.89521E+00	1.47586E+00	9.86634E-05
2.91106E+00	1.47588E+00	6.00861E-05
2.92708E+00	1.47578E+00	6.06695E-05
2.94328E+00	1.47569E+00	6.17577E-05
2.95966E+00	1.47558E+00	2.28587E-05
2.97622E+00	1.47544E+00	1.67890E-05
2.99297E+00	1.47530E+00	1.62200E-05
3.00991E+00	1.47514E+00	2.37147E-05
3.02704E+00	1.47495E+00	2.26696E-05
3.04437E+00	1.47474E+00	3.46399E-05
3.06189E+00	1.47449E+00	5.85826E-05
3.07963E+00	1.47423E+00	9.15027E-05
3.09756E+00	1.47389E+00	1.03456E-04
3.11571E+00	1.47346E+00	1.51342E-04
3.13407E+00	1.47292E+00	2.45301E-04
3.15265E+00	1.47225E+00	3.32750E-04
3.17145E+00	1.47127E+00	4.65910E-04
3.19047E+00	1.46967E+00	7.11131E-04
3.20973E+00	1.46646E+00	1.44917E-03
3.22922E+00	1.45508E+00	1.06271E-02
3.24895E+00	1.47067E+00	8.41608E-03
3.26892E+00	1.47478E+00	6.58199E-03
3.28913E+00	1.45208E+00	2.91642E-02
3.30960E+00	1.49707E+00	9.47023E-03
3.33033E+00	1.48826E+00	3.28296E-03
3.35131E+00	1.48500E+00	1.53582E-03
3.37256E+00	1.48303E+00	8.72112E-04
3.39409E+00	1.48187E+00	6.90176E-04
3.41589E+00	1.48093E+00	4.37682E-04
3.43797E+00	1.48005E+00	6.93543E-04
3.46034E+00	1.47942E+00	1.11149E-03
3.48300E+00	1.47987E+00	2.54121E-04
3.50596E+00	1.47940E+00	3.47243E-04
3.52923E+00	1.47906E+00	1.94798E-04
3.55280E+00	1.47920E+00	4.81621E-04
3.57670E+00	1.47885E+00	8.87839E-05
3.60092E+00	1.47858E+00	6.74190E-05
3.62546E+00	1.47837E+00	4.39162E-05
3.65035E+00	1.47819E+00	3.13215E-05
3.67558E+00	1.47802E+00	2.86411E-05
3.70115E+00	1.47785E+00	3.51516E-05
3.72709E+00	1.47769E+00	5.23387E-05
3.75340E+00	1.47745E+00	1.12022E-04
3.78007E+00	1.47778E+00	1.95642E-04
3.80713E+00	1.47741E+00	9.11319E-05
3.83458E+00	1.47741E+00	2.20168E-04
3.86243E+00	1.47770E+00	2.56327E-04
3.89069E+00	1.47738E+00	1.06268E-04
3.91936E+00	1.47729E+00	1.23826E-04
3.94846E+00	1.47713E+00	4.43001E-05
3.97800E+00	1.47703E+00	6.50866E-05
4.00797E+00	1.47690E+00	5.98249E-05
4.03841E+00	1.47684E+00	7.89551E-05
4.06931E+00	1.47674E+00	6.34399E-05
4.10069E+00	1.47661E+00	5.30649E-05
4.13255E+00	1.47645E+00	1.06953E-04
4.16491E+00	1.47641E+00	2.03316E-04
4.19779E+00	1.47637E+00	5.02448E-04
4.23118E+00	1.47636E+00	1.51258E-04
4.26512E+00	1.47600E+00	1.48501E-04
4.29960E+00	1.47589E+00	2.10876E-03
4.33464E+00	1.47670E+00	1.41690E-04
4.37026E+00	1.47630E+00	8.67354E-05
4.40647E+00	1.47617E+00	5.43406E-05
4.44329E+00	1.47596E+00	3.83148E-05
4.48072E+00	1.47571E+00	5.69618E-05
4.51879E+00	1.47516E+00	9.52017E-04
4.55752E+00	1.47598E+00	8.85549E-05
4.59691E+00	1.47569E+00	4.22122E-05
4.63699E+00	1.47550E+00	3.02026E-05
4.67778E+00	1.47532E+00	1.87697E-05
4.71929E+00	1.47512E+00	1.85763E-05
4.76154E+00	1.47492E+00	2.96083E-05
4.80455E+00	1.47470E+00	6.06670E-05
4.84835E+00	1.47443E+00	4.87511E-05
4.89296E+00	1.47410E+00	1.48330E-04
4.93840E+00	1.47366E+00	1.77575E-04
4.98468E+00	1.47300E+00	9.09718E-04
5.03184E+00	1.47239E+00	1.04248E-03
5.07991E+00	1.46923E+00	4.10032E-03
5.12890E+00	1.47905E+00	3.83355E-03
5.17884E+00	1.47649E+00	7.36801E-04
5.22977E+00	1.47514E+00	2.86081E-04
5.28171E+00	1.47411E+00	2.35211E-04
5.33469E+00	1.47347E+00	5.27837E-04
5.38874E+00	1.47227E+00	4.71996E-04
5.44390E+00	1.46964E+00	1.46459E-03
5.50020E+00	1.46918E+00	1.37138E-02
5.55768E+00	1.48049E+00	3.27275E-03
5.61637E+00	1.47734E+00	7.01247E-04
5.67631E+00	1.47540E+00	5.46594E-04
5.73755E+00	1.47538E+00	3.16578E-04
5.80013E+00	1.47436E+00	1.55889E-04
5.86408E+00	1.47383E+00	2.33014E-04
5.92946E+00	1.47302E+00	2.69941E-04
5.99631E+00	1.47313E+00	9.89793E-04
6.06469E+00	1.47224E+00	3.51951E-04
6.13465E+00	1.47124E+00	5.11511E-04
6.20624E+00	1.47124E+00	1.09840E-03
6.27952E+00	1.47021E+00	1.06754E-03
6.35455E+00	1.46950E+00	8.47163E-04
6.43139E+00	1.46703E+00	7.42265E-04
6.51012E+00	1.46284E+00	4.19832E-03
6.59080E+00	1.46561E+00	3.99136E-03
6.67350E+00	1.45267E+00	3.67789E-03
6.75831E+00	1.43945E+00	1.44024E-01
6.84530E+00	1.50055E+00	4.38288E-03
6.93455E+00	1.48638E+00	9.87138E-04
7.02617E+00	1.48120E+00	5.79278E-04
7.12023E+00	1.47752E+00	1.21686E-03
7.21686E+00	1.48023E+00	2.33848E-03
7.31613E+00	1.47767E+00	4.74904E-04
7.41818E+00	1.47619E+00	3.90359E-04
7.52312E+00	1.47508E+00	4.29859E-04
7.63107E+00	1.47434E+00	8.16477E-04
7.74216E+00	1.47373E+00	4.69601E-04
7.85653E+00	1.47263E+00	4.39783E-04
7.97433E+00	1.47142E+00	1.21282E-03
8.09572E+00	1.47139E+00	9.95787E-04
8.22086E+00	1.47013E+00	1.20272E-03
8.34993E+00	1.46882E+00	2.11501E-03
8.48312E+00	1.46903E+00	5.31862E-03
8.62063E+00	1.47062E+00	3.20921E-03
8.76267E+00	1.47062E+00	2.71760E-03
8.90946E+00	1.46889E+00	1.25498E-03
9.06126E+00	1.46661E+00	9.62768E-04
9.21832E+00	1.46350E+00	1.02765E-03
9.38092E+00	1.45807E+00	1.98510E-03
9.54937E+00	1.44202E+00	1.01990E-02
9.72397E+00	1.49964E+00	2.69210E-02
9.90507E+00	1.47971E+00	6.93913E-03
1.00931E+01	1.47432E+00	4.23765E-03
1.02883E+01	1.47149E+00	3.42701E-03
1.04913E+01	1.46973E+00	1.99848E-03
1.07024E+01	1.46695E+00	1.19131E-03
1.09222E+01	1.46414E+00	9.51600E-04
1.11512E+01	1.46123E+00	9.97192E-04
1.13900E+01	1.45787E+00	1.45622E-03
1.16393E+01	1.45420E+00	3.54179E-03
1.18997E+01	1.45478E+00	3.56846E-03
1.21721E+01	1.44971E+00	1.46987E-03
1.24572E+01	1.44294E+00	1.06612E-03
1.27560E+01	1.43349E+00	1.81718E-03
1.30694E+01	1.42558E+00	2.66014E-03
1.33987E+01	1.40800E+00	3.64296E-03
1.37450E+01	1.38032E+00	6.35524E-03
1.41097E+01	1.32165E+00	1.31398E-02
1.44942E+01	1.10488E+00	6.82673E-02
1.49003E+01	2.10719E+00	9.43296E-01
1.53298E+01	1.74105E+00	3.29793E-02
1.57848E+01	1.62421E+00	8.83172E-03
1.62676E+01	1.57970E+00	4.33686E-03
1.67809E+01	1.55851E+00	1.95064E-03
1.73276E+01	1.54420E+00	6.89135E-04
1.79112E+01	1.53436E+00	2.18524E-04
1.85354E+01	1.52735E+00	2.03458E-04
1.92048E+01	1.52208E+00	3.48765E-05
1.99242E+01	1.51792E+00	7.60257E-05
2.06997E+01	1.51454E+00	1.80127E-04
2.15380E+01	1.51173E+00	4.21113E-04
2.24471E+01	1.50952E+00	9.97724E-04
2.34363E+01	1.50769E+00	1.69473E-03
2.45167E+01	1.50733E+00	3.63209E-03
