Material: inorganic / NbSe2 / Munkhbat-e
Optical constants. B. Munkhbat, P. Wrobel, T. J. Antosiewicz, T. O. Shegai. Optical constants of several multilayer transition metal dichalcogenides spectroscopic ellipsometry in the 300–1700 nm range: High index, anisotropy, and hyperbolicity, ACS Photonics 9, 2398–2407 (2022) (Numerical data kindly provided by Tomasz Antosiewicz)
Comments: Multilayer flakes. Out-of-plane (extraordinary ray, e). Room temperature.
Specs: {"n_absolute": true, "wavelength_vacuum": true}
wavelength (um)	n	k
3.000000e-01	2.757323e+00	8.381207e-03
3.030000e-01	2.747983e+00	8.032635e-03
3.060000e-01	2.738983e+00	7.793659e-03
3.090000e-01	2.730307e+00	7.656048e-03
3.120000e-01	2.721942e+00	7.612423e-03
3.150000e-01	2.713877e+00	7.656155e-03
3.180000e-01	2.706104e+00	7.781264e-03
3.210000e-01	2.698623e+00	7.982328e-03
3.240000e-01	2.691448e+00	8.224347e-03
3.270000e-01	2.684534e+00	8.470767e-03
3.300000e-01	2.677853e+00	8.721623e-03
3.330000e-01	2.671383e+00	8.976976e-03
3.360000e-01	2.665109e+00	9.236882e-03
3.390000e-01	2.659018e+00	9.501391e-03
3.420000e-01	2.653096e+00	9.770551e-03
3.450000e-01	2.647333e+00	1.004441e-02
3.480000e-01	2.641720e+00	1.032301e-02
3.510000e-01	2.636248e+00	1.060640e-02
3.540000e-01	2.630908e+00	1.089462e-02
3.570000e-01	2.625694e+00	1.118772e-02
3.600000e-01	2.620599e+00	1.148573e-02
3.630000e-01	2.615617e+00	1.178870e-02
3.660000e-01	2.610740e+00	1.209667e-02
3.690000e-01	2.605965e+00	1.240968e-02
3.720000e-01	2.601286e+00	1.272778e-02
3.750000e-01	2.596698e+00	1.305100e-02
3.780000e-01	2.592197e+00	1.337939e-02
3.810000e-01	2.587778e+00	1.371298e-02
3.840000e-01	2.583438e+00	1.405182e-02
3.870000e-01	2.579172e+00	1.439595e-02
3.900000e-01	2.574978e+00	1.474540e-02
3.930000e-01	2.570853e+00	1.510023e-02
3.960000e-01	2.566792e+00	1.546046e-02
3.990000e-01	2.562793e+00	1.582615e-02
4.020000e-01	2.558853e+00	1.619732e-02
4.050000e-01	2.554970e+00	1.657402e-02
4.080000e-01	2.551141e+00	1.695629e-02
4.110000e-01	2.547363e+00	1.734417e-02
4.140000e-01	2.543635e+00	1.773770e-02
4.170000e-01	2.539954e+00	1.813691e-02
4.200000e-01	2.536317e+00	1.854186e-02
4.230000e-01	2.532725e+00	1.895258e-02
4.260000e-01	2.529173e+00	1.936911e-02
4.290000e-01	2.525661e+00	1.979149e-02
4.320000e-01	2.522186e+00	2.021975e-02
4.350000e-01	2.518748e+00	2.065395e-02
4.380000e-01	2.515344e+00	2.109412e-02
4.410000e-01	2.511974e+00	2.154029e-02
4.440000e-01	2.508635e+00	2.199252e-02
4.470000e-01	2.505326e+00	2.245084e-02
4.500000e-01	2.502046e+00	2.291529e-02
4.530000e-01	2.498794e+00	2.338591e-02
4.560000e-01	2.495569e+00	2.386274e-02
4.590000e-01	2.492368e+00	2.434583e-02
4.620000e-01	2.489193e+00	2.483521e-02
4.650000e-01	2.486040e+00	2.533092e-02
4.680000e-01	2.482909e+00	2.583301e-02
4.710000e-01	2.479800e+00	2.634152e-02
4.740000e-01	2.476711e+00	2.685648e-02
4.770000e-01	2.473641e+00	2.737794e-02
4.800000e-01	2.470590e+00	2.790594e-02
4.830000e-01	2.467556e+00	2.844052e-02
4.860000e-01	2.464539e+00	2.898172e-02
4.890000e-01	2.461538e+00	2.952959e-02
4.920000e-01	2.458552e+00	3.008416e-02
4.950000e-01	2.455581e+00	3.064548e-02
4.980000e-01	2.452623e+00	3.121359e-02
5.010000e-01	2.449679e+00	3.178853e-02
5.040000e-01	2.446747e+00	3.237035e-02
5.070000e-01	2.443827e+00	3.295908e-02
5.100000e-01	2.440918e+00	3.355477e-02
5.130000e-01	2.438020e+00	3.415747e-02
5.160000e-01	2.435132e+00	3.476722e-02
5.190000e-01	2.432253e+00	3.538405e-02
5.220000e-01	2.429384e+00	3.600802e-02
5.250000e-01	2.426523e+00	3.663917e-02
5.280000e-01	2.423669e+00	3.727754e-02
5.310000e-01	2.420823e+00	3.792317e-02
5.340000e-01	2.417985e+00	3.857612e-02
5.370000e-01	2.415152e+00	3.923643e-02
5.400000e-01	2.412326e+00	3.990413e-02
5.430000e-01	2.409506e+00	4.057929e-02
5.460000e-01	2.406690e+00	4.126194e-02
5.490000e-01	2.403880e+00	4.195213e-02
5.520000e-01	2.401073e+00	4.264990e-02
5.550000e-01	2.398271e+00	4.335531e-02
5.580000e-01	2.395473e+00	4.406840e-02
5.610000e-01	2.392678e+00	4.478922e-02
5.640000e-01	2.389886e+00	4.551782e-02
5.670000e-01	2.387096e+00	4.625424e-02
5.700000e-01	2.384309e+00	4.699854e-02
5.730000e-01	2.381523e+00	4.775076e-02
5.760000e-01	2.378740e+00	4.851095e-02
5.790000e-01	2.375957e+00	4.927918e-02
5.820000e-01	2.373176e+00	5.005548e-02
5.850000e-01	2.370395e+00	5.083990e-02
5.880000e-01	2.367615e+00	5.163251e-02
5.910000e-01	2.364835e+00	5.243334e-02
5.940000e-01	2.362054e+00	5.324247e-02
5.970000e-01	2.359274e+00	5.405993e-02
6.000000e-01	2.356492e+00	5.488579e-02
6.030000e-01	2.353710e+00	5.572009e-02
6.060000e-01	2.350927e+00	5.656290e-02
6.090000e-01	2.348142e+00	5.741428e-02
6.120000e-01	2.345355e+00	5.827427e-02
6.150000e-01	2.342567e+00	5.914294e-02
6.180000e-01	2.339776e+00	6.002035e-02
6.210000e-01	2.336984e+00	6.090656e-02
6.240000e-01	2.334188e+00	6.180162e-02
6.270000e-01	2.331390e+00	6.270560e-02
6.300000e-01	2.328589e+00	6.361857e-02
6.330000e-01	2.325785e+00	6.454058e-02
6.360000e-01	2.322977e+00	6.547170e-02
6.390000e-01	2.320165e+00	6.641200e-02
6.420000e-01	2.317350e+00	6.736155e-02
6.450000e-01	2.314531e+00	6.832041e-02
6.480000e-01	2.311707e+00	6.928866e-02
6.510000e-01	2.308880e+00	7.026636e-02
6.540000e-01	2.306047e+00	7.125359e-02
6.570000e-01	2.303210e+00	7.225042e-02
6.600000e-01	2.300368e+00	7.325693e-02
6.630000e-01	2.297520e+00	7.427319e-02
6.660000e-01	2.294668e+00	7.529929e-02
6.690000e-01	2.291810e+00	7.633531e-02
6.720000e-01	2.288946e+00	7.738134e-02
6.750000e-01	2.286076e+00	7.843744e-02
6.780000e-01	2.283201e+00	7.950372e-02
6.810000e-01	2.280319e+00	8.058027e-02
6.840000e-01	2.277431e+00	8.166718e-02
6.870000e-01	2.274536e+00	8.276453e-02
6.900000e-01	2.271635e+00	8.387244e-02
6.930000e-01	2.268726e+00	8.499100e-02
6.960000e-01	2.265811e+00	8.612031e-02
6.990000e-01	2.262889e+00	8.726049e-02
7.020000e-01	2.259959e+00	8.841165e-02
7.050000e-01	2.257022e+00	8.957389e-02
7.080000e-01	2.254077e+00	9.074735e-02
7.110000e-01	2.251124e+00	9.193214e-02
7.140000e-01	2.248163e+00	9.312839e-02
7.170000e-01	2.245195e+00	9.433624e-02
7.200000e-01	2.242217e+00	9.555582e-02
7.230000e-01	2.239232e+00	9.678728e-02
7.260000e-01	2.236238e+00	9.803077e-02
7.290000e-01	2.233235e+00	9.928644e-02
7.320000e-01	2.230223e+00	1.005545e-01
7.350000e-01	2.227202e+00	1.018350e-01
7.380000e-01	2.224171e+00	1.031283e-01
7.410000e-01	2.221132e+00	1.044344e-01
7.440000e-01	2.218082e+00	1.057536e-01
7.470000e-01	2.215023e+00	1.070862e-01
7.500000e-01	2.211955e+00	1.084322e-01
7.530000e-01	2.208876e+00	1.097920e-01
7.560000e-01	2.205787e+00	1.111658e-01
7.590000e-01	2.202687e+00	1.125539e-01
7.620000e-01	2.199578e+00	1.139565e-01
7.650000e-01	2.196457e+00	1.153739e-01
7.680000e-01	2.193326e+00	1.168064e-01
7.710000e-01	2.190184e+00	1.182544e-01
7.740000e-01	2.187031e+00	1.197182e-01
7.770000e-01	2.183867e+00	1.211982e-01
7.800000e-01	2.180692e+00	1.226948e-01
7.830000e-01	2.177505e+00	1.242084e-01
7.860000e-01	2.174307e+00	1.257394e-01
7.890000e-01	2.171098e+00	1.272884e-01
7.920000e-01	2.167876e+00	1.288559e-01
7.950000e-01	2.164644e+00	1.304423e-01
7.980000e-01	2.161400e+00	1.320485e-01
8.010000e-01	2.158144e+00	1.336749e-01
8.040000e-01	2.154876e+00	1.353222e-01
8.070000e-01	2.151598e+00	1.369913e-01
8.100000e-01	2.148308e+00	1.386828e-01
8.130000e-01	2.145007e+00	1.403977e-01
8.160000e-01	2.141696e+00	1.421368e-01
8.190000e-01	2.138374e+00	1.439011e-01
8.220000e-01	2.135042e+00	1.456917e-01
8.250000e-01	2.131701e+00	1.475096e-01
8.280000e-01	2.128352e+00	1.493560e-01
8.310000e-01	2.124995e+00	1.512320e-01
8.340000e-01	2.121632e+00	1.531390e-01
8.370000e-01	2.118264e+00	1.550781e-01
8.400000e-01	2.114893e+00	1.570506e-01
8.430000e-01	2.111520e+00	1.590579e-01
8.460000e-01	2.108148e+00	1.611010e-01
8.490000e-01	2.104780e+00	1.631812e-01
8.520000e-01	2.101418e+00	1.652991e-01
8.550000e-01	2.098066e+00	1.674556e-01
8.580000e-01	2.094728e+00	1.696509e-01
8.610000e-01	2.091409e+00	1.718846e-01
8.640000e-01	2.088114e+00	1.741559e-01
8.670000e-01	2.084848e+00	1.764629e-01
8.700000e-01	2.081618e+00	1.788027e-01
8.730000e-01	2.078428e+00	1.811712e-01
8.760000e-01	2.075285e+00	1.835628e-01
8.790000e-01	2.072194e+00	1.859700e-01
8.820000e-01	2.069161e+00	1.883839e-01
8.850000e-01	2.066187e+00	1.907937e-01
8.880000e-01	2.063275e+00	1.931870e-01
8.910000e-01	2.060422e+00	1.955504e-01
8.940000e-01	2.057626e+00	1.978699e-01
8.970000e-01	2.054876e+00	2.001319e-01
9.000000e-01	2.052163e+00	2.023240e-01
9.030000e-01	2.049471e+00	2.044363e-01
9.060000e-01	2.046784e+00	2.064621e-01
9.090000e-01	2.044084e+00	2.083990e-01
9.120000e-01	2.041350e+00	2.102485e-01
9.150000e-01	2.038567e+00	2.120169e-01
9.180000e-01	2.035718e+00	2.137138e-01
9.210000e-01	2.032790e+00	2.153517e-01
9.240000e-01	2.029775e+00	2.169453e-01
9.270000e-01	2.026667e+00	2.185094e-01
9.300000e-01	2.023465e+00	2.200592e-01
9.330000e-01	2.020168e+00	2.216083e-01
9.360000e-01	2.016781e+00	2.231691e-01
9.390000e-01	2.013308e+00	2.247519e-01
9.420000e-01	2.009756e+00	2.263654e-01
9.450000e-01	2.006131e+00	2.280160e-01
9.480000e-01	2.002440e+00	2.297086e-01
9.510000e-01	1.998690e+00	2.314467e-01
9.540000e-01	1.994886e+00	2.332324e-01
9.570000e-01	1.991036e+00	2.350668e-01
9.600000e-01	1.987143e+00	2.369503e-01
9.630000e-01	1.983212e+00	2.388828e-01
9.660000e-01	1.979248e+00	2.408635e-01
9.690000e-01	1.975254e+00	2.428916e-01
9.720000e-01	1.971232e+00	2.449660e-01
9.750000e-01	1.967186e+00	2.470854e-01
9.780000e-01	1.963116e+00	2.492487e-01
9.810000e-01	1.959026e+00	2.514546e-01
9.840000e-01	1.954915e+00	2.537018e-01
9.870000e-01	1.950787e+00	2.559893e-01
9.900000e-01	1.946640e+00	2.583159e-01
9.930000e-01	1.942476e+00	2.606807e-01
9.960000e-01	1.938296e+00	2.630828e-01
9.990000e-01	1.934100e+00	2.655212e-01
1.005000e+00	1.925661e+00	2.705046e-01
1.012500e+00	1.915026e+00	2.769272e-01
1.020000e+00	1.904296e+00	2.835582e-01
1.027500e+00	1.893470e+00	2.903930e-01
1.035000e+00	1.882547e+00	2.974289e-01
1.042500e+00	1.871523e+00	3.046652e-01
1.050000e+00	1.860398e+00	3.121025e-01
1.057500e+00	1.849168e+00	3.197425e-01
1.065000e+00	1.837830e+00	3.275881e-01
1.072500e+00	1.826383e+00	3.356431e-01
1.080000e+00	1.814825e+00	3.439118e-01
1.087500e+00	1.803152e+00	3.523994e-01
1.095000e+00	1.791363e+00	3.611118e-01
1.102500e+00	1.779457e+00	3.700553e-01
1.110000e+00	1.767432e+00	3.792368e-01
1.117500e+00	1.755287e+00	3.886639e-01
1.125000e+00	1.743022e+00	3.983444e-01
1.132500e+00	1.730635e+00	4.082868e-01
1.140000e+00	1.718126e+00	4.185000e-01
1.147500e+00	1.705496e+00	4.289935e-01
1.155000e+00	1.692745e+00	4.397770e-01
1.162500e+00	1.679874e+00	4.508609e-01
1.170000e+00	1.666885e+00	4.622559e-01
1.177500e+00	1.653779e+00	4.739733e-01
1.185000e+00	1.640560e+00	4.860248e-01
1.192500e+00	1.627230e+00	4.984222e-01
1.200000e+00	1.613793e+00	5.111782e-01
1.207500e+00	1.600254e+00	5.243055e-01
1.215000e+00	1.586618e+00	5.378172e-01
1.222500e+00	1.572891e+00	5.517268e-01
1.230000e+00	1.559081e+00	5.660479e-01
1.237500e+00	1.545195e+00	5.807945e-01
1.245000e+00	1.531243e+00	5.959805e-01
1.252500e+00	1.517235e+00	6.116199e-01
1.260000e+00	1.503182e+00	6.277268e-01
1.267500e+00	1.489097e+00	6.443148e-01
1.275000e+00	1.474994e+00	6.613977e-01
1.282500e+00	1.460887e+00	6.789885e-01
1.290000e+00	1.446792e+00	6.971000e-01
1.297500e+00	1.432728e+00	7.157440e-01
1.305000e+00	1.418713e+00	7.349318e-01
1.312500e+00	1.404766e+00	7.546734e-01
1.320000e+00	1.390910e+00	7.749781e-01
1.327500e+00	1.377165e+00	7.958535e-01
1.335000e+00	1.363554e+00	8.173061e-01
1.342500e+00	1.350102e+00	8.393407e-01
1.350000e+00	1.336832e+00	8.619604e-01
1.357500e+00	1.323769e+00	8.851667e-01
1.365000e+00	1.310937e+00	9.089593e-01
1.372500e+00	1.298360e+00	9.333361e-01
1.380000e+00	1.286064e+00	9.582931e-01
1.387500e+00	1.274072e+00	9.838247e-01
1.395000e+00	1.262406e+00	1.009924e+00
1.402500e+00	1.251088e+00	1.036581e+00
1.410000e+00	1.240140e+00	1.063787e+00
1.417500e+00	1.229580e+00	1.091530e+00
1.425000e+00	1.219427e+00	1.119797e+00
1.432500e+00	1.209697e+00	1.148576e+00
1.440000e+00	1.200405e+00	1.177854e+00
1.447500e+00	1.191564e+00	1.207616e+00
1.455000e+00	1.183186e+00	1.237848e+00
1.462500e+00	1.175281e+00	1.268538e+00
1.470000e+00	1.167858e+00	1.299672e+00
1.477500e+00	1.160925e+00	1.331238e+00
1.485000e+00	1.154487e+00	1.363223e+00
1.492500e+00	1.148550e+00	1.395617e+00
1.500000e+00	1.143118e+00	1.428410e+00
1.507500e+00	1.138194e+00	1.461594e+00
1.515000e+00	1.133783e+00	1.495160e+00
1.522500e+00	1.129886e+00	1.529102e+00
1.530000e+00	1.126507e+00	1.563416e+00
1.537500e+00	1.123647e+00	1.598098e+00
1.545000e+00	1.121309e+00	1.633144e+00
1.552500e+00	1.119496e+00	1.668555e+00
1.560000e+00	1.118211e+00	1.704329e+00
1.567500e+00	1.117458e+00	1.740468e+00
1.575000e+00	1.117242e+00	1.776974e+00
1.582500e+00	1.117568e+00	1.813851e+00
1.590000e+00	1.118442e+00	1.851103e+00
1.597500e+00	1.119871e+00	1.888735e+00
1.605000e+00	1.121863e+00	1.926755e+00
1.612500e+00	1.124428e+00	1.965170e+00
1.620000e+00	1.127577e+00	2.003987e+00
1.627500e+00	1.131322e+00	2.043216e+00
1.635000e+00	1.135677e+00	2.082866e+00
1.642500e+00	1.140657e+00	2.122949e+00
1.650000e+00	1.146280e+00	2.163474e+00
1.657500e+00	1.152565e+00	2.204454e+00
1.665000e+00	1.159533e+00	2.245901e+00
1.672500e+00	1.167207e+00	2.287827e+00
1.680000e+00	1.175613e+00	2.330245e+00
1.687500e+00	1.184779e+00	2.373168e+00
