Material: inorganic / NbSe2 / Munkhbat-o
Optical constants. B. Munkhbat, P. Wrobel, T. J. Antosiewicz, T. O. Shegai. Optical constants of several multilayer transition metal dichalcogenides spectroscopic ellipsometry in the 300–1700 nm range: High index, anisotropy, and hyperbolicity, ACS Photonics 9, 2398–2407 (2022) (Numerical data kindly provided by Tomasz Antosiewicz)
Comments: Multilayer flakes. In-plane (ordinary ray, o). Room temperature.
Specs: {"n_absolute": true, "wavelength_vacuum": true}
wavelength (um)	n	k
3.000000e-01	1.914593e+00	1.880153e+00
3.030000e-01	1.952204e+00	1.895547e+00
3.060000e-01	1.991647e+00	1.908722e+00
3.090000e-01	2.032715e+00	1.919369e+00
3.120000e-01	2.075144e+00	1.927197e+00
3.150000e-01	2.118620e+00	1.931946e+00
3.180000e-01	2.162777e+00	1.933396e+00
3.210000e-01	2.207205e+00	1.931379e+00
3.240000e-01	2.251455e+00	1.925788e+00
3.270000e-01	2.295054e+00	1.916588e+00
3.300000e-01	2.337516e+00	1.903822e+00
3.330000e-01	2.378357e+00	1.887613e+00
3.360000e-01	2.417114e+00	1.868166e+00
3.390000e-01	2.453361e+00	1.845760e+00
3.420000e-01	2.486718e+00	1.820744e+00
3.450000e-01	2.516874e+00	1.793522e+00
3.480000e-01	2.543585e+00	1.764539e+00
3.510000e-01	2.566686e+00	1.734267e+00
3.540000e-01	2.586089e+00	1.703186e+00
3.570000e-01	2.601784e+00	1.671773e+00
3.600000e-01	2.613827e+00	1.640485e+00
3.630000e-01	2.622336e+00	1.609752e+00
3.660000e-01	2.627482e+00	1.579965e+00
3.690000e-01	2.629476e+00	1.551476e+00
3.720000e-01	2.628561e+00	1.524590e+00
3.750000e-01	2.625003e+00	1.499571e+00
3.780000e-01	2.619082e+00	1.476637e+00
3.810000e-01	2.611087e+00	1.455967e+00
3.840000e-01	2.601309e+00	1.437703e+00
3.870000e-01	2.590036e+00	1.421951e+00
3.900000e-01	2.577556e+00	1.408790e+00
3.930000e-01	2.564147e+00	1.398272e+00
3.960000e-01	2.550084e+00	1.390423e+00
3.990000e-01	2.535632e+00	1.385251e+00
4.020000e-01	2.521053e+00	1.382742e+00
4.050000e-01	2.506599e+00	1.382865e+00
4.080000e-01	2.492516e+00	1.385571e+00
4.110000e-01	2.479047e+00	1.390797e+00
4.140000e-01	2.466425e+00	1.398459e+00
4.170000e-01	2.454878e+00	1.408457e+00
4.200000e-01	2.444627e+00	1.420675e+00
4.230000e-01	2.435885e+00	1.434978e+00
4.260000e-01	2.428854e+00	1.451211e+00
4.290000e-01	2.423724e+00	1.469201e+00
4.320000e-01	2.420673e+00	1.488759e+00
4.350000e-01	2.419862e+00	1.509674e+00
4.380000e-01	2.421435e+00	1.531720e+00
4.410000e-01	2.425512e+00	1.554655e+00
4.440000e-01	2.432195e+00	1.578223e+00
4.470000e-01	2.441557e+00	1.602154e+00
4.500000e-01	2.453647e+00	1.626170e+00
4.530000e-01	2.468484e+00	1.649986e+00
4.560000e-01	2.486057e+00	1.673313e+00
4.590000e-01	2.506326e+00	1.695858e+00
4.620000e-01	2.529218e+00	1.717336e+00
4.650000e-01	2.554628e+00	1.737464e+00
4.680000e-01	2.582420e+00	1.755969e+00
4.710000e-01	2.612427e+00	1.772595e+00
4.740000e-01	2.644450e+00	1.787101e+00
4.770000e-01	2.678264e+00	1.799269e+00
4.800000e-01	2.713615e+00	1.808909e+00
4.830000e-01	2.750229e+00	1.815858e+00
4.860000e-01	2.787809e+00	1.819990e+00
4.890000e-01	2.826047e+00	1.821214e+00
4.920000e-01	2.864622e+00	1.819478e+00
4.950000e-01	2.903211e+00	1.814773e+00
4.980000e-01	2.941492e+00	1.807130e+00
5.010000e-01	2.979152e+00	1.796622e+00
5.040000e-01	3.015892e+00	1.783361e+00
5.070000e-01	3.051434e+00	1.767495e+00
5.100000e-01	3.085525e+00	1.749208e+00
5.130000e-01	3.117943e+00	1.728709e+00
5.160000e-01	3.148498e+00	1.706234e+00
5.190000e-01	3.177037e+00	1.682034e+00
5.220000e-01	3.203445e+00	1.656373e+00
5.250000e-01	3.227646e+00	1.629522e+00
5.280000e-01	3.249600e+00	1.601752e+00
5.310000e-01	3.269304e+00	1.573329e+00
5.340000e-01	3.286790e+00	1.544510e+00
5.370000e-01	3.302125e+00	1.515541e+00
5.400000e-01	3.315404e+00	1.486648e+00
5.430000e-01	3.326751e+00	1.458039e+00
5.460000e-01	3.336316e+00	1.429896e+00
5.490000e-01	3.344273e+00	1.402374e+00
5.520000e-01	3.350815e+00	1.375598e+00
5.550000e-01	3.356151e+00	1.349654e+00
5.580000e-01	3.360503e+00	1.324591e+00
5.610000e-01	3.364097e+00	1.300412e+00
5.640000e-01	3.367154e+00	1.277069e+00
5.670000e-01	3.369882e+00	1.254463e+00
5.700000e-01	3.372454e+00	1.232443e+00
5.730000e-01	3.374999e+00	1.210815e+00
5.760000e-01	3.377581e+00	1.189348e+00
5.790000e-01	3.380189e+00	1.167799e+00
5.820000e-01	3.382729e+00	1.145938e+00
5.850000e-01	3.385030e+00	1.123574e+00
5.880000e-01	3.386860e+00	1.100585e+00
5.910000e-01	3.387957e+00	1.076936e+00
5.940000e-01	3.388058e+00	1.052683e+00
5.970000e-01	3.386931e+00	1.027964e+00
6.000000e-01	3.384407e+00	1.002982e+00
6.030000e-01	3.380385e+00	9.779748e-01
6.060000e-01	3.374838e+00	9.531901e-01
6.090000e-01	3.367807e+00	9.288596e-01
6.120000e-01	3.359381e+00	9.051844e-01
6.150000e-01	3.349686e+00	8.823259e-01
6.180000e-01	3.338865e+00	8.604041e-01
6.210000e-01	3.327070e+00	8.394996e-01
6.240000e-01	3.314447e+00	8.196594e-01
6.270000e-01	3.301136e+00	8.009029e-01
6.300000e-01	3.287261e+00	7.832284e-01
6.330000e-01	3.272935e+00	7.666187e-01
6.360000e-01	3.258253e+00	7.510463e-01
6.390000e-01	3.243299e+00	7.364765e-01
6.420000e-01	3.228144e+00	7.228712e-01
6.450000e-01	3.212849e+00	7.101903e-01
6.480000e-01	3.197466e+00	6.983937e-01
6.510000e-01	3.182037e+00	6.874422e-01
6.540000e-01	3.166599e+00	6.772981e-01
6.570000e-01	3.151184e+00	6.679254e-01
6.600000e-01	3.135818e+00	6.592904e-01
6.630000e-01	3.120526e+00	6.513618e-01
6.660000e-01	3.105328e+00	6.441100e-01
6.690000e-01	3.090243e+00	6.375077e-01
6.720000e-01	3.075286e+00	6.315295e-01
6.750000e-01	3.060475e+00	6.261515e-01
6.780000e-01	3.045822e+00	6.213517e-01
6.810000e-01	3.031343e+00	6.171092e-01
6.840000e-01	3.017050e+00	6.134043e-01
6.870000e-01	3.002958e+00	6.102183e-01
6.900000e-01	2.989082e+00	6.075334e-01
6.930000e-01	2.975436e+00	6.053319e-01
6.960000e-01	2.962038e+00	6.035963e-01
6.990000e-01	2.948909e+00	6.022988e-01
7.020000e-01	2.936057e+00	6.014176e-01
7.050000e-01	2.923501e+00	6.009357e-01
7.080000e-01	2.911274e+00	6.008045e-01
7.110000e-01	2.899350e+00	6.009761e-01
7.140000e-01	2.887717e+00	6.014381e-01
7.170000e-01	2.876375e+00	6.021763e-01
7.200000e-01	2.865321e+00	6.031759e-01
7.230000e-01	2.854559e+00	6.044213e-01
7.260000e-01	2.844089e+00	6.058966e-01
7.290000e-01	2.833913e+00	6.075853e-01
7.320000e-01	2.824033e+00	6.094708e-01
7.350000e-01	2.814449e+00	6.115357e-01
7.380000e-01	2.805161e+00	6.137626e-01
7.410000e-01	2.796171e+00	6.161336e-01
7.440000e-01	2.787475e+00	6.186306e-01
7.470000e-01	2.779072e+00	6.212357e-01
7.500000e-01	2.770959e+00	6.239305e-01
7.530000e-01	2.763132e+00	6.266972e-01
7.560000e-01	2.755584e+00	6.295179e-01
7.590000e-01	2.748309e+00	6.323754e-01
7.620000e-01	2.741299e+00	6.352528e-01
7.650000e-01	2.734545e+00	6.381339e-01
7.680000e-01	2.728036e+00	6.410037e-01
7.710000e-01	2.721762e+00	6.438478e-01
7.740000e-01	2.715709e+00	6.466533e-01
7.770000e-01	2.709864e+00	6.494082e-01
7.800000e-01	2.704214e+00	6.521022e-01
7.830000e-01	2.698745e+00	6.547262e-01
7.860000e-01	2.693441e+00	6.572728e-01
7.890000e-01	2.688287e+00	6.597359e-01
7.920000e-01	2.683270e+00	6.621112e-01
7.950000e-01	2.678373e+00	6.643955e-01
7.980000e-01	2.673583e+00	6.665875e-01
8.010000e-01	2.668885e+00	6.686869e-01
8.040000e-01	2.664268e+00	6.706947e-01
8.070000e-01	2.659718e+00	6.726130e-01
8.100000e-01	2.655224e+00	6.744451e-01
8.130000e-01	2.650775e+00	6.761949e-01
8.160000e-01	2.646363e+00	6.778670e-01
8.190000e-01	2.641978e+00	6.794665e-01
8.220000e-01	2.637613e+00	6.809991e-01
8.250000e-01	2.633263e+00	6.824704e-01
8.280000e-01	2.628922e+00	6.838864e-01
8.310000e-01	2.624585e+00	6.852528e-01
8.340000e-01	2.620250e+00	6.865753e-01
8.370000e-01	2.615914e+00	6.878594e-01
8.400000e-01	2.611575e+00	6.891100e-01
8.430000e-01	2.607231e+00	6.903319e-01
8.460000e-01	2.602884e+00	6.915293e-01
8.490000e-01	2.598531e+00	6.927061e-01
8.520000e-01	2.594175e+00	6.938655e-01
8.550000e-01	2.589815e+00	6.950102e-01
8.580000e-01	2.585452e+00	6.961426e-01
8.610000e-01	2.581087e+00	6.972643e-01
8.640000e-01	2.576722e+00	6.983766e-01
8.670000e-01	2.572357e+00	6.994805e-01
8.700000e-01	2.567993e+00	7.005762e-01
8.730000e-01	2.563632e+00	7.016639e-01
8.760000e-01	2.559273e+00	7.027433e-01
8.790000e-01	2.554917e+00	7.038137e-01
8.820000e-01	2.550566e+00	7.048744e-01
8.850000e-01	2.546218e+00	7.059242e-01
8.880000e-01	2.541874e+00	7.069621e-01
8.910000e-01	2.537534e+00	7.079866e-01
8.940000e-01	2.533196e+00	7.089963e-01
8.970000e-01	2.528860e+00	7.099898e-01
9.000000e-01	2.524525e+00	7.109656e-01
9.030000e-01	2.520190e+00	7.119223e-01
9.060000e-01	2.515852e+00	7.128585e-01
9.090000e-01	2.511511e+00	7.137728e-01
9.120000e-01	2.507164e+00	7.146641e-01
9.150000e-01	2.502809e+00	7.155313e-01
9.180000e-01	2.498443e+00	7.163734e-01
9.210000e-01	2.494065e+00	7.171897e-01
9.240000e-01	2.489671e+00	7.179795e-01
9.270000e-01	2.485260e+00	7.187424e-01
9.300000e-01	2.480828e+00	7.194782e-01
9.330000e-01	2.476373e+00	7.201867e-01
9.360000e-01	2.471892e+00	7.208682e-01
9.390000e-01	2.467381e+00	7.215228e-01
9.420000e-01	2.462839e+00	7.221511e-01
9.450000e-01	2.458263e+00	7.227537e-01
9.480000e-01	2.453649e+00	7.233316e-01
9.510000e-01	2.448995e+00	7.238857e-01
9.540000e-01	2.444299e+00	7.244172e-01
9.570000e-01	2.439558e+00	7.249274e-01
9.600000e-01	2.434769e+00	7.254179e-01
9.630000e-01	2.429930e+00	7.258902e-01
9.660000e-01	2.425040e+00	7.263461e-01
9.690000e-01	2.420094e+00	7.267875e-01
9.720000e-01	2.415093e+00	7.272163e-01
9.750000e-01	2.410033e+00	7.276345e-01
9.780000e-01	2.404914e+00	7.280442e-01
9.810000e-01	2.399732e+00	7.284478e-01
9.840000e-01	2.394488e+00	7.288475e-01
9.870000e-01	2.389179e+00	7.292455e-01
9.900000e-01	2.383804e+00	7.296443e-01
9.930000e-01	2.378363e+00	7.300462e-01
9.960000e-01	2.372854e+00	7.304536e-01
9.990000e-01	2.367276e+00	7.308691e-01
1.005000e+00	2.355911e+00	7.317336e-01
1.012500e+00	2.341308e+00	7.329024e-01
1.020000e+00	2.326260e+00	7.342040e-01
1.027500e+00	2.310766e+00	7.356749e-01
1.035000e+00	2.294830e+00	7.373499e-01
1.042500e+00	2.278457e+00	7.392621e-01
1.050000e+00	2.261656e+00	7.414427e-01
1.057500e+00	2.244439e+00	7.439209e-01
1.065000e+00	2.226817e+00	7.467237e-01
1.072500e+00	2.208805e+00	7.498760e-01
1.080000e+00	2.190418e+00	7.534008e-01
1.087500e+00	2.171672e+00	7.573191e-01
1.095000e+00	2.152585e+00	7.616502e-01
1.102500e+00	2.133173e+00	7.664119e-01
1.110000e+00	2.113453e+00	7.716201e-01
1.117500e+00	2.093444e+00	7.772899e-01
1.125000e+00	2.073162e+00	7.834347e-01
1.132500e+00	2.052627e+00	7.900672e-01
1.140000e+00	2.031854e+00	7.971991e-01
1.147500e+00	2.010864e+00	8.048410e-01
1.155000e+00	1.989672e+00	8.130032e-01
1.162500e+00	1.968297e+00	8.216950e-01
1.170000e+00	1.946757e+00	8.309254e-01
1.177500e+00	1.925070e+00	8.407027e-01
1.185000e+00	1.903254e+00	8.510347e-01
1.192500e+00	1.881328e+00	8.619289e-01
1.200000e+00	1.859311e+00	8.733923e-01
1.207500e+00	1.837221e+00	8.854313e-01
1.215000e+00	1.815079e+00	8.980519e-01
1.222500e+00	1.792905e+00	9.112595e-01
1.230000e+00	1.770719e+00	9.250590e-01
1.237500e+00	1.748544e+00	9.394543e-01
1.245000e+00	1.726399e+00	9.544491e-01
1.252500e+00	1.704309e+00	9.700455e-01
1.260000e+00	1.682297e+00	9.862453e-01
1.267500e+00	1.660385e+00	1.003049e+00
1.275000e+00	1.638598e+00	1.020455e+00
1.282500e+00	1.616962e+00	1.038462e+00
1.290000e+00	1.595500e+00	1.057066e+00
1.297500e+00	1.574239e+00	1.076261e+00
1.305000e+00	1.553203e+00	1.096042e+00
1.312500e+00	1.532418e+00	1.116398e+00
1.320000e+00	1.511910e+00	1.137321e+00
1.327500e+00	1.491702e+00	1.158798e+00
1.335000e+00	1.471819e+00	1.180814e+00
1.342500e+00	1.452284e+00	1.203353e+00
1.350000e+00	1.433120e+00	1.226400e+00
1.357500e+00	1.414347e+00	1.249933e+00
1.365000e+00	1.395985e+00	1.273932e+00
1.372500e+00	1.378052e+00	1.298376e+00
1.380000e+00	1.360563e+00	1.323241e+00
1.387500e+00	1.343535e+00	1.348503e+00
1.395000e+00	1.326978e+00	1.374137e+00
1.402500e+00	1.310903e+00	1.400117e+00
1.410000e+00	1.295319e+00	1.426417e+00
1.417500e+00	1.280232e+00	1.453013e+00
1.425000e+00	1.265646e+00	1.479876e+00
1.432500e+00	1.251565e+00	1.506983e+00
1.440000e+00	1.237988e+00	1.534308e+00
1.447500e+00	1.224916e+00	1.561826e+00
1.455000e+00	1.212346e+00	1.589515e+00
1.462500e+00	1.200273e+00	1.617350e+00
1.470000e+00	1.188692e+00	1.645310e+00
1.477500e+00	1.177599e+00	1.673375e+00
1.485000e+00	1.166984e+00	1.701524e+00
1.492500e+00	1.156839e+00	1.729738e+00
1.500000e+00	1.147157e+00	1.758001e+00
1.507500e+00	1.137927e+00	1.786296e+00
1.515000e+00	1.129139e+00	1.814608e+00
1.522500e+00	1.120783e+00	1.842922e+00
1.530000e+00	1.112849e+00	1.871225e+00
1.537500e+00	1.105324e+00	1.899505e+00
1.545000e+00	1.098199e+00	1.927752e+00
1.552500e+00	1.091462e+00	1.955954e+00
1.560000e+00	1.085102e+00	1.984103e+00
1.567500e+00	1.079107e+00	2.012190e+00
1.575000e+00	1.073468e+00	2.040207e+00
1.582500e+00	1.068173e+00	2.068147e+00
1.590000e+00	1.063212e+00	2.096005e+00
1.597500e+00	1.058574e+00	2.123774e+00
1.605000e+00	1.054249e+00	2.151449e+00
1.612500e+00	1.050226e+00	2.179026e+00
1.620000e+00	1.046497e+00	2.206502e+00
1.627500e+00	1.043052e+00	2.233872e+00
1.635000e+00	1.039881e+00	2.261133e+00
1.642500e+00	1.036975e+00	2.288283e+00
1.650000e+00	1.034326e+00	2.315320e+00
1.657500e+00	1.031926e+00	2.342241e+00
1.665000e+00	1.029766e+00	2.369046e+00
1.672500e+00	1.027838e+00	2.395732e+00
1.680000e+00	1.026135e+00	2.422298e+00
1.687500e+00	1.024649e+00	2.448744e+00
