Material: organic / (C10H8O4)n - polyethylene terephthalate / Zhang
Optical constants. 1) X. Zhang, J. Qiu, X. Li, J. Zhao, L. Liu. Complex refractive indices measurements of polymers in visible and near-infrared bands, Appl. Opt. 59, 2337-2344 (2020) (0.4-2 µm)2) X. Zhang, J. Qiu, J. Zhao, X. Li, L. Liu. Complex refractive indices measurements of polymers in infrared bands, J. Quant. Spectrosc. Radiat. Transf. 252, 107063 (2020) (2-20 µm)
Comments: Normal temperature and pressure. Manufacturer: Chenghang plastic material, China.
Specs: {"n_absolute": true, "wavelength_vacuum": false}
wavelength (um)	n	k
0.40	1.61027	2.31E-06
0.42	1.60212	1.76E-06
0.44	1.59528	1.48E-06
0.46	1.58988	1.37E-06
0.48	1.58496	1.33E-06
0.50	1.58111	1.32E-06
0.52	1.57769	1.36E-06
0.54	1.57470	1.33E-06
0.56	1.57194	1.36E-06
0.58	1.56993	1.39E-06
0.60	1.56811	1.29E-06
0.62	1.56627	1.25E-06
0.64	1.56478	1.17E-06
0.66	1.56317	1.01E-06
0.68	1.56199	9.11E-07
0.70	1.56052	8.64E-07
0.72	1.55933	8.52E-07
0.74	1.55854	8.28E-07
0.76	1.55795	7.43E-07
0.78	1.55583	7.45E-07
0.80	1.55533	7.56E-07
0.82	1.55541	8.66E-07
0.84	1.55462	6.77E-07
0.86	1.55405	7.04E-07
0.88	1.55330	7.57E-06
0.90	1.55288	7.73E-06
0.92	1.55233	7.45E-06
0.94	1.55185	7.79E-06
0.96	1.55154	1.14E-06
0.98	1.55096	4.12E-06
1.00	1.55073	9.11E-06
1.02	1.55051	1.08E-06
1.04	1.54870	1.26E-06
1.06	1.54817	1.15E-06
1.08	1.54785	1.14E-06
1.10	1.54759	1.23E-06
1.12	1.54718	3.28E-06
1.14	1.54683	3.69E-06
1.16	1.54667	3.65E-06
1.18	1.54643	5.02E-06
1.20	1.54635	2.84E-06
1.22	1.54564	1.77E-06
1.24	1.54566	1.48E-06
1.26	1.54539	1.10E-06
1.28	1.54486	1.59E-06
1.30	1.54486	1.56E-06
1.32	1.54434	1.77E-06
1.34	1.54445	2.37E-06
1.36	1.54397	5.65E-06
1.38	1.54403	7.38E-06
1.40	1.54335	8.39E-06
1.42	1.54367	9.06E-06
1.44	1.54380	6.34E-06
1.46	1.54245	5.43E-06
1.48	1.54327	3.52E-06
1.50	1.54294	3.48E-06
1.52	1.54268	2.69E-06
1.54	1.54211	2.65E-06
1.56	1.54214	3.09E-06
1.58	1.54202	3.40E-06
1.60	1.54167	4.29E-06
1.62	1.54238	8.80E-06
1.64	1.54127	2.89E-05
1.66	1.54155	1.13E-04
1.68	1.54210	5.66E-05
1.70	1.54123	4.27E-05
1.72	1.54138	4.38E-05
1.74	1.54141	3.58E-05
1.76	1.54126	2.70E-05
1.78	1.53999	2.09E-05
1.80	1.54077	2.10E-05
1.82	1.54054	2.04E-05
1.84	1.54038	1.69E-05
1.86	1.54099	1.76E-05
1.88	1.54026	1.90E-05
1.90	1.54183	4.51E-05
1.92	1.54006	3.61E-05
1.94	1.53976	2.83E-05
1.96	1.53965	2.90E-05
1.98	1.53927	1.89E-05
2.00	1.53997	1.91E-05
2.0190	1.64802	2.53E-05
2.0381	1.62743	2.87E-05
2.0575	1.60303	3.42E-05
2.0773	1.56728	4.94E-05
2.0975	1.55855	5.62E-05
2.1180	1.53989	9.97E-05
2.1390	1.53917	1.36E-04
2.1568	1.53894	1.21E-04
2.1785	1.53891	9.90E-05
2.1970	1.54276	8.10E-05
2.2196	1.54059	1.04E-04
2.2387	1.53663	1.82E-04
2.2582	1.53694	2.28E-03
2.2781	1.53796	2.87E-03
2.2983	1.53520	1.81E-03
2.3188	1.53621	8.63E-04
2.3398	1.53593	1.66E-03
2.3568	1.53637	2.19E-03
2.3784	1.53542	1.65E-03
2.3960	1.53434	2.40E-03
2.4183	1.53681	1.87E-03
2.4365	1.53685	6.51E-04
2.4596	1.53576	9.63E-04
2.4784	1.53500	1.03E-03
2.4975	1.53416	8.18E-04
2.5169	1.53569	1.15E-03
2.5366	1.53644	1.12E-03
2.5567	1.53475	2.24E-03
2.5770	1.53488	2.26E-04
2.5976	1.53532	2.12E-04
2.6186	1.53502	2.12E-04
2.6400	1.53435	2.05E-04
2.6562	1.53311	2.19E-04
2.6782	1.53208	2.21E-04
2.6949	1.53255	1.92E-03
2.7175	1.53404	2.04E-03
2.7347	1.53390	2.09E-03
2.7579	1.53437	2.35E-03
2.7756	1.53364	1.75E-03
2.7996	1.53312	1.83E-03
2.8179	1.53334	2.35E-03
2.8364	1.53372	2.52E-03
2.8551	1.53208	1.69E-03
2.8741	1.53001	2.20E-03
2.8998	1.53121	1.28E-03
2.9194	1.53249	2.04E-03
2.9393	1.53218	2.15E-03
2.9594	1.53170	1.83E-03
2.9798	1.53164	1.52E-03
2.9936	1.53164	2.16E-03
3.0145	1.53188	2.26E-03
3.0357	1.53085	1.66E-03
3.0571	1.53114	1.21E-03
3.0789	1.53100	1.01E-03
3.0936	1.53110	2.09E-03
3.1159	1.53033	2.79E-03
3.1386	1.52998	1.82E-03
3.1538	1.52944	2.17E-03
3.1770	1.52841	2.01E-03
3.1927	1.52851	2.73E-03
3.2164	1.52743	3.59E-03
3.2325	1.52714	3.92E-03
3.2569	1.52812	3.62E-03
3.2733	1.52822	3.26E-03
3.2983	1.52634	2.64E-03
3.3152	1.52405	4.06E-03
3.3322	1.52161	6.69E-03
3.3581	1.52273	1.48E-02
3.3756	1.53082	1.81E-02
3.3933	1.53758	1.38E-02
3.4111	1.53774	8.10E-03
3.4383	1.53393	5.96E-03
3.4566	1.53347	7.23E-03
3.4751	1.53459	6.61E-03
3.4939	1.53540	4.41E-03
3.5128	1.53537	2.70E-03
3.5320	1.53403	1.74E-03
3.5513	1.53259	1.52E-03
3.5709	1.53122	2.00E-03
3.5907	1.53089	1.91E-03
3.6107	1.53039	1.80E-03
3.6309	1.52989	1.83E-03
3.6513	1.52983	1.59E-03
3.6720	1.52888	1.73E-03
3.6930	1.52931	1.07E-03
3.7141	1.52871	1.31E-03
3.7355	1.52758	1.42E-03
3.7572	1.52758	1.14E-03
3.7791	1.52656	1.29E-03
3.8013	1.52652	1.40E-03
3.8237	1.52640	1.47E-03
3.8464	1.52548	1.66E-03
3.8693	1.52528	1.24E-03
3.8926	1.52511	1.30E-03
3.9161	1.52483	1.74E-03
3.9399	1.52362	1.60E-03
3.9640	1.52409	1.46E-03
3.9884	1.52384	1.29E-03
4.0131	1.52352	1.57E-03
4.0381	1.52295	1.50E-03
4.0634	1.52238	1.10E-03
4.0890	1.52166	1.33E-03
4.1150	1.52134	1.86E-03
4.1413	1.52039	1.97E-03
4.1679	1.52022	2.23E-03
4.1949	1.52012	2.74E-03
4.2222	1.52079	3.28E-03
4.2499	1.52054	3.01E-03
4.2780	1.51872	1.91E-03
4.3064	1.51772	1.22E-03
4.3352	1.51758	1.65E-03
4.3644	1.51732	2.03E-03
4.3940	1.51673	1.99E-03
4.4240	1.51561	1.80E-03
4.4544	1.51524	1.79E-03
4.4852	1.51475	2.20E-03
4.5165	1.51373	1.84E-03
4.5482	1.51285	1.51E-03
4.5803	1.51171	2.00E-03
4.6129	1.51071	2.11E-03
4.6460	1.50998	2.19E-03
4.6795	1.50905	2.62E-03
4.7136	1.50843	2.47E-03
4.7481	1.50752	2.61E-03
4.7831	1.50637	2.55E-03
4.8187	1.50559	2.05E-03
4.8548	1.50488	1.91E-03
4.8914	1.50272	1.76E-03
4.9286	1.50075	1.87E-03
4.9664	1.49883	2.13E-03
5.0047	1.49710	2.90E-03
5.0437	1.49565	3.27E-03
5.0832	1.49276	3.49E-03
5.1234	1.49154	4.90E-03
5.1643	1.49026	4.11E-03
5.2057	1.48773	2.97E-03
5.2479	1.48428	2.81E-03
5.2907	1.48041	2.31E-03
5.3343	1.47578	2.59E-03
5.3785	1.46936	2.91E-03
5.4235	1.46220	4.54E-03
5.4693	1.45491	5.98E-03
5.5159	1.44521	6.69E-03
5.5632	1.43145	7.67E-03
5.6114	1.40911	9.53E-03
5.6604	1.36717	1.59E-02
5.7103	1.27262	5.64E-02
5.7610	1.21707	3.84E-01
5.8127	1.65093	5.29E-01
5.8653	1.80268	1.21E-01
5.9188	1.65369	2.90E-02
5.9734	1.60708	1.84E-02
6.0290	1.58032	1.04E-02
6.0856	1.55853	7.69E-03
6.1433	1.54442	7.77E-03
6.2020	1.53536	1.02E-02
6.2620	1.52563	7.37E-03
6.3231	1.51625	1.46E-02
6.3854	1.51856	9.93E-03
6.4489	1.50701	6.23E-03
6.5137	1.49597	7.03E-03
6.5798	1.48589	9.35E-03
6.6473	1.48466	2.00E-02
6.7162	1.47153	1.08E-02
6.7865	1.46006	2.74E-02
6.8583	1.46075	3.77E-02
6.9317	1.46618	3.49E-02
7.0066	1.44202	2.10E-02
7.0832	1.42705	8.42E-02
7.1615	1.47306	5.31E-02
7.2415	1.43431	5.56E-02
7.3233	1.45459	5.19E-02
7.4070	1.40586	2.91E-02
7.4926	1.36725	4.06E-02
7.5803	1.29253	6.35E-02
7.6700	1.19301	1.75E-01
7.7618	1.20793	4.04E-01
7.8559	1.38170	5.79E-01
7.9523	1.70521	5.82E-01
8.0511	1.92141	3.71E-01
8.1524	1.84944	8.03E-02
8.2562	1.71383	2.95E-02
8.3628	1.64001	1.93E-02
8.4721	1.58346	2.87E-02
8.5843	1.54217	3.11E-02
8.6995	1.45630	6.52E-02
8.8179	1.40294	1.91E-01
8.9395	1.50643	3.42E-01
9.0645	1.67477	4.08E-01
9.1931	1.88114	2.14E-01
9.3254	1.78046	4.90E-02
9.4615	1.68799	3.92E-02
9.6017	1.66381	6.18E-02
9.7461	1.64332	9.20E-02
9.8949	1.72380	6.95E-02
10.048	1.66393	1.85E-02
10.207	1.64728	3.95E-02
10.370	1.65357	3.06E-02
10.538	1.63832	1.69E-02
10.713	1.62369	1.57E-02
10.893	1.60939	1.54E-02
11.079	1.59487	3.00E-02
11.272	1.59101	4.37E-02
11.471	1.62593	6.31E-02
11.678	1.62288	2.76E-02
11.892	1.61118	2.67E-02
12.114	1.60662	2.17E-02
12.345	1.59666	2.15E-02
12.585	1.58976	2.50E-02
12.834	1.57832	1.41E-02
13.093	1.55212	1.30E-02
13.363	1.47368	2.86E-02
13.645	1.51756	3.61E-01
13.938	1.83856	1.32E-01
14.244	1.70043	1.70E-02
14.564	1.66168	8.78E-03
14.899	1.64074	6.82E-03
15.250	1.63292	5.66E-03
15.617	1.62066	9.01E-03
16.003	1.61632	6.86E-03
16.408	1.61267	5.45E-03
16.834	1.60441	6.35E-03
17.283	1.59761	4.16E-03
17.757	1.59207	9.61E-03
18.257	1.58650	1.39E-02
18.786	1.58432	2.23E-02
19.347	1.58226	2.61E-02
19.942	1.59610	4.48E-02
