Material: inorganic / Bi2Se3 / Fang-2L
Optical constants. M. Fang, Z. Wang, H. Gu, M. Tong, B. Song, X. Xie, T. Zhou, X. Chen, H. Jiang, T. Jiang, S. Liu, Layer-dependent dielectric permittivity of topological insulator Bi2Se3 thin films. Appl. Surf. Sci. 509, 144822 (2020) (Numerical data kindly provided by Baokun Song)
Comments: 2-layer, 2L
Specs: {"n_absolute": true, "wavelength_vacuum": true, "film_thickness": "2L", "substrate": "sapphire"}
wavelength (um)	n	k
0.1930	0.909305	1.429264
0.1960	0.887151	1.508160
0.1990	0.879509	1.556831
0.2020	0.875709	1.594534
0.2050	0.873112	1.628842
0.2080	0.871417	1.663195
0.2110	0.871097	1.699135
0.2140	0.872816	1.737181
0.2170	0.877169	1.777270
0.2200	0.884588	1.819030
0.2230	0.895310	1.861945
0.2260	0.909404	1.905467
0.2290	0.926806	1.949083
0.2320	0.947358	1.992343
0.2350	0.970846	2.034873
0.2380	0.997031	2.076372
0.2410	1.025659	2.116604
0.2440	1.056486	2.155387
0.2470	1.089275	2.192579
0.2500	1.123802	2.228072
0.2530	1.159857	2.261785
0.2560	1.197242	2.293652
0.2590	1.235769	2.323624
0.2620	1.275255	2.351664
0.2650	1.315525	2.377748
0.2680	1.356406	2.401859
0.2710	1.397729	2.423994
0.2740	1.439325	2.444161
0.2770	1.481030	2.462382
0.2800	1.522679	2.478689
0.2830	1.564114	2.493132
0.2860	1.605180	2.505775
0.2890	1.645730	2.516698
0.2920	1.685626	2.525994
0.2950	1.724740	2.533772
0.2980	1.762961	2.540154
0.3010	1.800190	2.545276
0.3040	1.836346	2.549280
0.3070	1.871367	2.552318
0.3100	1.905213	2.554548
0.3130	1.937862	2.556126
0.3160	1.969313	2.557211
0.3190	1.999587	2.557957
0.3220	2.028721	2.558508
0.3250	2.056773	2.559002
0.3280	2.083815	2.559565
0.3310	2.109936	2.560306
0.3340	2.135232	2.561321
0.3370	2.159810	2.562689
0.3400	2.183785	2.564470
0.3430	2.207271	2.566708
0.3460	2.230386	2.569429
0.3490	2.253245	2.572641
0.3520	2.275958	2.576340
0.3550	2.298630	2.580503
0.3580	2.321357	2.585099
0.3610	2.344227	2.590082
0.3640	2.367317	2.595399
0.3670	2.390694	2.600990
0.3700	2.414414	2.606788
0.3730	2.438520	2.612723
0.3760	2.463045	2.618725
0.3790	2.488013	2.624719
0.3820	2.513435	2.630636
0.3850	2.539315	2.636406
0.3880	2.565649	2.641962
0.3910	2.592422	2.647242
0.3940	2.619617	2.652188
0.3970	2.647208	2.656747
0.4000	2.675165	2.660870
0.4030	2.703454	2.664515
0.4060	2.732039	2.667645
0.4090	2.760881	2.670229
0.4120	2.789939	2.672240
0.4150	2.819171	2.673658
0.4180	2.848536	2.674467
0.4210	2.877991	2.674655
0.4240	2.907496	2.674215
0.4270	2.937009	2.673145
0.4300	2.966493	2.671447
0.4330	2.995909	2.669125
0.4360	3.025222	2.666186
0.4390	3.054399	2.662641
0.4420	3.083408	2.658504
0.4450	3.112220	2.653789
0.4480	3.140808	2.648514
0.4510	3.169148	2.642697
0.4540	3.197218	2.636359
0.4570	3.224999	2.629520
0.4600	3.252472	2.622202
0.4630	3.279623	2.614427
0.4660	3.306441	2.606219
0.4690	3.332914	2.597599
0.4720	3.359036	2.588591
0.4750	3.384799	2.579217
0.4780	3.410200	2.569498
0.4810	3.435238	2.559456
0.4840	3.459911	2.549111
0.4870	3.484223	2.538484
0.4900	3.508175	2.527591
0.4930	3.531773	2.516452
0.4960	3.555022	2.505080
0.4990	3.577929	2.493491
0.5020	3.600502	2.481699
0.5050	3.622749	2.469714
0.5080	3.644680	2.457546
0.5110	3.666304	2.445203
0.5140	3.687632	2.432691
0.5170	3.708672	2.420016
0.5200	3.729434	2.407181
0.5230	3.749927	2.394187
0.5260	3.770160	2.381033
0.5290	3.790140	2.367718
0.5320	3.809874	2.354240
0.5350	3.829367	2.340593
0.5380	3.848623	2.326773
0.5410	3.867645	2.312773
0.5440	3.886434	2.298587
0.5470	3.904987	2.284208
0.5500	3.923304	2.269628
0.5530	3.941380	2.254840
0.5560	3.959207	2.239837
0.5590	3.976779	2.224612
0.5620	3.994085	2.209161
0.5650	4.011113	2.193479
0.5680	4.027852	2.177564
0.5710	4.044288	2.161413
0.5740	4.060405	2.145027
0.5770	4.076187	2.128409
0.5800	4.091620	2.111563
0.5830	4.106686	2.094496
0.5860	4.121369	2.077215
0.5890	4.135654	2.059731
0.5920	4.149526	2.042057
0.5950	4.162970	2.024206
0.5980	4.175973	2.006196
0.6010	4.188524	1.988043
0.6040	4.200613	1.969766
0.6070	4.212232	1.951386
0.6100	4.223373	1.932924
0.6130	4.234033	1.914400
0.6160	4.244208	1.895838
0.6190	4.253899	1.877259
0.6220	4.263105	1.858687
0.6250	4.271830	1.840142
0.6280	4.280079	1.821646
0.6310	4.287859	1.803221
0.6340	4.295177	1.784887
0.6370	4.302043	1.766663
0.6400	4.308468	1.748567
0.6430	4.314464	1.730615
0.6460	4.320044	1.712826
0.6490	4.325223	1.695212
0.6520	4.330014	1.677787
0.6550	4.334433	1.660564
0.6580	4.338496	1.643552
0.6610	4.342219	1.626762
0.6640	4.345617	1.610202
0.6670	4.348709	1.593878
0.6700	4.351510	1.577795
0.6730	4.354036	1.561959
0.6760	4.356304	1.546373
0.6790	4.358329	1.531038
0.6820	4.360127	1.515956
0.6850	4.361713	1.501127
0.6880	4.363101	1.486551
0.6910	4.364306	1.472225
0.6940	4.365342	1.458147
0.6970	4.366221	1.444314
0.7000	4.366955	1.430722
0.7030	4.367557	1.417368
0.7060	4.368037	1.404245
0.7090	4.368405	1.391349
0.7120	4.368672	1.378673
0.7150	4.368845	1.366212
0.7180	4.368934	1.353959
0.7210	4.368945	1.341907
0.7240	4.368884	1.330050
0.7270	4.368758	1.318381
0.7300	4.368573	1.306892
0.7330	4.368331	1.295578
0.7360	4.368037	1.284430
0.7390	4.367695	1.273443
0.7420	4.367306	1.262609
0.7450	4.366873	1.251923
0.7480	4.366396	1.241379
0.7510	4.365876	1.230970
0.7540	4.365315	1.220693
0.7570	4.364711	1.210541
0.7600	4.364064	1.200510
0.7630	4.363373	1.190597
0.7660	4.362637	1.180797
0.7690	4.361855	1.171108
0.7720	4.361025	1.161527
0.7750	4.360146	1.152052
0.7780	4.359215	1.142681
0.7810	4.358231	1.133413
0.7840	4.357192	1.124249
0.7870	4.356097	1.115186
0.7900	4.354944	1.106226
0.7930	4.353732	1.097370
0.7960	4.352459	1.088618
0.7990	4.351124	1.079972
0.8020	4.349727	1.071434
0.8050	4.348268	1.063005
0.8080	4.346746	1.054689
0.8110	4.345161	1.046488
0.8140	4.343515	1.038404
0.8170	4.341808	1.030441
0.8200	4.340042	1.022601
0.8230	4.338218	1.014889
0.8260	4.336340	1.007307
0.8290	4.334409	0.999859
0.8320	4.332428	0.992547
0.8350	4.330402	0.985376
0.8380	4.328334	0.978348
0.8410	4.326229	0.971466
0.8440	4.324092	0.964734
0.8470	4.321928	0.958154
0.8500	4.319743	0.951728
0.8530	4.317542	0.945460
0.8560	4.315334	0.939349
0.8590	4.313124	0.933399
0.8620	4.310921	0.927610
0.8650	4.308731	0.921982
0.8680	4.306564	0.916517
0.8710	4.304428	0.911213
0.8740	4.302332	0.906070
0.8770	4.300285	0.901085
0.8800	4.298297	0.896256
0.8830	4.296376	0.891581
0.8860	4.294534	0.887055
0.8890	4.292779	0.882673
0.8920	4.291121	0.878429
0.8950	4.289571	0.874317
0.8980	4.288136	0.870328
0.9010	4.286828	0.866454
0.9040	4.285653	0.862685
0.9070	4.284621	0.859009
0.9100	4.283738	0.855416
0.9130	4.283012	0.851891
0.9160	4.282447	0.848420
0.9190	4.282048	0.844989
0.9220	4.281818	0.841583
0.9250	4.281759	0.838184
0.9280	4.281869	0.834775
0.9310	4.282149	0.831341
0.9340	4.282594	0.827863
0.9370	4.283199	0.824324
0.9400	4.283956	0.820707
0.9430	4.284857	0.816997
0.9460	4.285890	0.813177
0.9490	4.287044	0.809234
0.9520	4.288303	0.805154
0.9550	4.289653	0.800926
0.9580	4.291076	0.796541
0.9610	4.292554	0.791991
0.9640	4.294069	0.787269
0.9670	4.295602	0.782372
0.9700	4.297133	0.777299
0.9730	4.298644	0.772051
0.9760	4.300115	0.766630
0.9790	4.301529	0.761041
0.9820	4.302868	0.755290
0.9850	4.304117	0.749387
0.9880	4.305261	0.743340
0.9910	4.306286	0.737161
0.9940	4.307181	0.730863
0.9970	4.307936	0.724457
1.0000	4.308542	0.717957
1.0075	4.309367	0.701391
1.0150	4.309163	0.684545
1.0225	4.307923	0.667626
1.0300	4.305684	0.650816
1.0375	4.302514	0.634269
1.0450	4.298504	0.618107
1.0525	4.293750	0.602421
1.0600	4.288355	0.587272
1.0675	4.282418	0.572701
1.0750	4.276031	0.558727
1.0825	4.269276	0.545355
1.0900	4.262228	0.532580
1.0975	4.254951	0.520387
1.1050	4.247500	0.508757
1.1125	4.239923	0.497667
1.1200	4.232259	0.487092
1.1275	4.224541	0.477006
1.1350	4.216797	0.467382
1.1425	4.209048	0.458196
1.1500	4.201315	0.449422
1.1575	4.193610	0.441037
1.1650	4.185946	0.433019
1.1725	4.178333	0.425348
1.1800	4.170777	0.418003
1.1875	4.163284	0.410966
1.1950	4.155858	0.404221
1.2025	4.148503	0.397751
1.2100	4.141219	0.391543
1.2175	4.134009	0.385583
1.2250	4.126873	0.379858
1.2325	4.119810	0.374358
1.2400	4.112820	0.369072
1.2475	4.105902	0.363990
1.2550	4.099055	0.359103
1.2625	4.092277	0.354403
1.2700	4.085566	0.349883
1.2775	4.078922	0.345536
1.2850	4.072341	0.341356
1.2925	4.065822	0.337338
1.3000	4.059362	0.333475
1.3075	4.052960	0.329764
1.3150	4.046613	0.326201
1.3225	4.040319	0.322781
1.3300	4.034076	0.319502
1.3375	4.027882	0.316361
1.3450	4.021734	0.313356
1.3525	4.015631	0.310486
1.3600	4.009570	0.307747
1.3675	4.003550	0.305140
1.3750	3.997568	0.302664
1.3825	3.991623	0.300319
1.3900	3.985713	0.298106
1.3975	3.979837	0.296024
1.4050	3.973994	0.294075
1.4125	3.968182	0.292261
1.4200	3.962401	0.290584
1.4275	3.956649	0.289046
1.4350	3.950929	0.287652
1.4425	3.945238	0.286403
1.4500	3.939578	0.285306
1.4575	3.933951	0.284364
1.4650	3.928358	0.283583
1.4725	3.922803	0.282969
1.4800	3.917288	0.282528
1.4875	3.911818	0.282268
1.4950	3.906400	0.282197
1.5025	3.901040	0.282322
1.5100	3.895748	0.282652
1.5175	3.890533	0.283195
1.5250	3.885409	0.283962
1.5325	3.880390	0.284960
1.5400	3.875494	0.286198
1.5475	3.870742	0.287684
1.5550	3.866156	0.289425
1.5625	3.861765	0.291425
1.5700	3.857597	0.293686
1.5775	3.853689	0.296208
1.5850	3.850076	0.298985
1.5925	3.846800	0.302006
1.6000	3.843905	0.305254
1.6075	3.841435	0.308703
1.6150	3.839437	0.312318
1.6225	3.837955	0.316055
1.6300	3.837030	0.319858
1.6375	3.836696	0.323658
1.6450	3.836979	0.327379
1.6525	3.837890	0.330932
1.6600	3.839428	0.334222
1.6675	3.841570	0.337150
1.6750	3.844273	0.339618
1.6825	3.847475	0.341533
1.6900	3.851094	0.342813
