Material: inorganic / Bi2Se3 / Fang-6L
Optical constants. M. Fang, Z. Wang, H. Gu, M. Tong, B. Song, X. Xie, T. Zhou, X. Chen, H. Jiang, T. Jiang, S. Liu, Layer-dependent dielectric permittivity of topological insulator Bi2Se3 thin films. Appl. Surf. Sci. 509, 144822 (2020) (Numerical data kindly provided by Baokun Song)
Comments: 6-layer, 6L
Specs: {"n_absolute": true, "wavelength_vacuum": true, "film_thickness": "6L", "substrate": "sapphire"}
wavelength (um)	n	k
0.1930	0.863839	1.396754
0.1960	0.845684	1.451974
0.1990	0.833164	1.492126
0.2020	0.821808	1.526485
0.2050	0.810423	1.559484
0.2080	0.799029	1.593427
0.2110	0.788117	1.629482
0.2140	0.778320	1.668131
0.2170	0.770252	1.709418
0.2200	0.764417	1.753118
0.2230	0.761179	1.798852
0.2260	0.760760	1.846174
0.2290	0.763258	1.894625
0.2320	0.768667	1.943778
0.2350	0.776911	1.993248
0.2380	0.787864	2.042707
0.2410	0.801370	2.091882
0.2440	0.817260	2.140549
0.2470	0.835362	2.188529
0.2500	0.855506	2.235678
0.2530	0.877531	2.281881
0.2560	0.901285	2.327046
0.2590	0.926627	2.371098
0.2620	0.953422	2.413975
0.2650	0.981547	2.455625
0.2680	1.010882	2.496004
0.2710	1.041315	2.535073
0.2740	1.072733	2.572799
0.2770	1.105031	2.609151
0.2800	1.138099	2.644106
0.2830	1.171831	2.677642
0.2860	1.206117	2.709746
0.2890	1.240848	2.740410
0.2920	1.275913	2.769631
0.2950	1.311200	2.797417
0.2980	1.346595	2.823783
0.3010	1.381986	2.848756
0.3040	1.417261	2.872370
0.3070	1.452313	2.894674
0.3100	1.487034	2.915725
0.3130	1.521328	2.935594
0.3160	1.555101	2.954362
0.3190	1.588272	2.972120
0.3220	1.620767	2.988970
0.3250	1.652527	3.005019
0.3280	1.683507	3.020385
0.3310	1.713673	3.035186
0.3340	1.743012	3.049548
0.3370	1.771522	3.063591
0.3400	1.799220	3.077438
0.3430	1.826136	3.091206
0.3460	1.852316	3.105005
0.3490	1.877819	3.118936
0.3520	1.902717	3.133092
0.3550	1.927091	3.147552
0.3580	1.951029	3.162382
0.3610	1.974628	3.177634
0.3640	1.997986	3.193348
0.3670	2.021204	3.209546
0.3700	2.044382	3.226240
0.3730	2.067617	3.243424
0.3760	2.091003	3.261084
0.3790	2.114626	3.279193
0.3820	2.138568	3.297713
0.3850	2.162901	3.316598
0.3880	2.187687	3.335797
0.3910	2.212982	3.355251
0.3940	2.238830	3.374899
0.3970	2.265266	3.394676
0.4000	2.292318	3.414517
0.4030	2.320001	3.434357
0.4060	2.348327	3.454131
0.4090	2.377295	3.473778
0.4120	2.406902	3.493238
0.4150	2.437136	3.512455
0.4180	2.467979	3.531377
0.4210	2.499412	3.549958
0.4240	2.531409	3.568154
0.4270	2.563941	3.585926
0.4300	2.596979	3.603243
0.4330	2.630490	3.620074
0.4360	2.664442	3.636397
0.4390	2.698801	3.652191
0.4420	2.733532	3.667442
0.4450	2.768604	3.682138
0.4480	2.803984	3.696272
0.4510	2.839640	3.709840
0.4540	2.875544	3.722842
0.4570	2.911667	3.735279
0.4600	2.947985	3.747156
0.4630	2.984473	3.758480
0.4660	3.021110	3.769260
0.4690	3.057879	3.779506
0.4720	3.094762	3.789229
0.4750	3.131747	3.798441
0.4780	3.168823	3.807156
0.4810	3.205981	3.815387
0.4840	3.243215	3.823146
0.4870	3.280524	3.830446
0.4900	3.317904	3.837298
0.4930	3.355360	3.843715
0.4960	3.392893	3.849706
0.4990	3.430511	3.855278
0.5020	3.468220	3.860439
0.5050	3.506030	3.865193
0.5080	3.543951	3.869542
0.5110	3.581997	3.873487
0.5140	3.620179	3.877025
0.5170	3.658511	3.880151
0.5200	3.697007	3.882857
0.5230	3.735680	3.885132
0.5260	3.774545	3.886961
0.5290	3.813613	3.888328
0.5320	3.852896	3.889213
0.5350	3.892405	3.889592
0.5380	3.932147	3.889440
0.5410	3.972128	3.888728
0.5440	4.012350	3.887424
0.5470	4.052815	3.885495
0.5500	4.093517	3.882905
0.5530	4.134450	3.879618
0.5560	4.175602	3.875593
0.5590	4.216956	3.870792
0.5620	4.258492	3.865176
0.5650	4.300185	3.858704
0.5680	4.342003	3.851338
0.5710	4.383912	3.843041
0.5740	4.425870	3.833778
0.5770	4.467834	3.823516
0.5800	4.509753	3.812226
0.5830	4.551573	3.799883
0.5860	4.593237	3.786465
0.5890	4.634684	3.771958
0.5920	4.675851	3.756350
0.5950	4.716671	3.739637
0.5980	4.757077	3.721820
0.6010	4.797001	3.702906
0.6040	4.836375	3.682911
0.6070	4.875131	3.661854
0.6100	4.913203	3.639763
0.6130	4.950528	3.616669
0.6160	4.987044	3.592613
0.6190	5.022694	3.567637
0.6220	5.057425	3.541792
0.6250	5.091187	3.515131
0.6280	5.123937	3.487712
0.6310	5.155637	3.459595
0.6340	5.186253	3.430843
0.6370	5.215759	3.401523
0.6400	5.244132	3.371700
0.6430	5.271358	3.341443
0.6460	5.297426	3.310819
0.6490	5.322332	3.279894
0.6520	5.346077	3.248735
0.6550	5.368667	3.217405
0.6580	5.390112	3.185968
0.6610	5.410428	3.154484
0.6640	5.429634	3.123010
0.6670	5.447752	3.091600
0.6700	5.464808	3.060307
0.6730	5.480830	3.029178
0.6760	5.495850	2.998260
0.6790	5.509900	2.967592
0.6820	5.523016	2.937214
0.6850	5.535233	2.907160
0.6880	5.546589	2.877463
0.6910	5.557121	2.848149
0.6940	5.566868	2.819244
0.6970	5.575867	2.790771
0.7000	5.584159	2.762748
0.7030	5.591780	2.735192
0.7060	5.598769	2.708117
0.7090	5.605164	2.681532
0.7120	5.611001	2.655448
0.7150	5.616316	2.629871
0.7180	5.621144	2.604806
0.7210	5.625520	2.580255
0.7240	5.629478	2.556218
0.7270	5.633048	2.532696
0.7300	5.636263	2.509685
0.7330	5.639153	2.487181
0.7360	5.641747	2.465181
0.7390	5.644072	2.443676
0.7420	5.646155	2.422660
0.7450	5.648021	2.402124
0.7480	5.649696	2.382059
0.7510	5.651201	2.362454
0.7540	5.652560	2.343298
0.7570	5.653792	2.324580
0.7600	5.654918	2.306286
0.7630	5.655956	2.288405
0.7660	5.656924	2.270922
0.7690	5.657837	2.253824
0.7720	5.658710	2.237095
0.7750	5.659559	2.220723
0.7780	5.660394	2.204691
0.7810	5.661229	2.188985
0.7840	5.662074	2.173589
0.7870	5.662939	2.158487
0.7900	5.663832	2.143666
0.7930	5.664760	2.129108
0.7960	5.665730	2.114799
0.7990	5.666749	2.100723
0.8020	5.667819	2.086865
0.8050	5.668944	2.073210
0.8080	5.670128	2.059744
0.8110	5.671372	2.046452
0.8140	5.672676	2.033320
0.8170	5.674042	2.020334
0.8200	5.675467	2.007481
0.8230	5.676950	1.994749
0.8260	5.678489	1.982124
0.8290	5.680082	1.969595
0.8320	5.681723	1.957152
0.8350	5.683410	1.944782
0.8380	5.685137	1.932477
0.8410	5.686899	1.920227
0.8440	5.688690	1.908024
0.8470	5.690505	1.895859
0.8500	5.692337	1.883725
0.8530	5.694178	1.871616
0.8560	5.696023	1.859526
0.8590	5.697865	1.847449
0.8620	5.699695	1.835381
0.8650	5.701506	1.823319
0.8680	5.703293	1.811258
0.8710	5.705046	1.799198
0.8740	5.706759	1.787135
0.8770	5.708425	1.775069
0.8800	5.710036	1.762999
0.8830	5.711587	1.750925
0.8860	5.713070	1.738847
0.8890	5.714479	1.726767
0.8920	5.715808	1.714685
0.8950	5.717052	1.702605
0.8980	5.718204	1.690527
0.9010	5.719260	1.678454
0.9040	5.720216	1.666391
0.9070	5.721065	1.654339
0.9100	5.721806	1.642302
0.9130	5.722433	1.630285
0.9160	5.722944	1.618291
0.9190	5.723336	1.606323
0.9220	5.723605	1.594388
0.9250	5.723751	1.582488
0.9280	5.723771	1.570628
0.9310	5.723663	1.558813
0.9340	5.723426	1.547048
0.9370	5.723060	1.535336
0.9400	5.722564	1.523682
0.9430	5.721937	1.512092
0.9460	5.721180	1.500569
0.9490	5.720293	1.489118
0.9520	5.719277	1.477744
0.9550	5.718131	1.466450
0.9580	5.716858	1.455240
0.9610	5.715459	1.444120
0.9640	5.713934	1.433092
0.9670	5.712286	1.422162
0.9700	5.710517	1.411332
0.9730	5.708628	1.400607
0.9760	5.706621	1.389990
0.9790	5.704498	1.379484
0.9820	5.702262	1.369093
0.9850	5.699916	1.358821
0.9880	5.697462	1.348671
0.9910	5.694902	1.338645
0.9940	5.692239	1.328747
0.9970	5.689476	1.318980
1.0000	5.686616	1.309347
1.0075	5.679063	1.285869
1.0150	5.670971	1.263289
1.0225	5.662394	1.241650
1.0300	5.653389	1.220994
1.0375	5.644017	1.201362
1.0450	5.634346	1.182798
1.0525	5.624455	1.165344
1.0600	5.614431	1.149043
1.0675	5.604376	1.133938
1.0750	5.594412	1.120067
1.0825	5.584681	1.107460
1.0900	5.575352	1.096131
1.0975	5.566623	1.086071
1.1050	5.558719	1.077232
1.1125	5.551890	1.069514
1.1200	5.546400	1.062742
1.1275	5.542500	1.056650
1.1350	5.540397	1.050873
1.1425	5.540208	1.044944
1.1500	5.541910	1.038328
1.1575	5.545297	1.030468
1.1650	5.549969	1.020868
1.1725	5.555355	1.009177
1.1800	5.560786	0.995257
1.1875	5.565588	0.979207
1.1950	5.569185	0.961338
1.2025	5.571164	0.942111
1.2100	5.571303	0.922046
1.2175	5.569561	0.901649
1.2250	5.566033	0.881358
1.2325	5.560901	0.861515
1.2400	5.554397	0.842363
1.2475	5.546759	0.824059
1.2550	5.538213	0.806686
1.2625	5.528963	0.790277
1.2700	5.519181	0.774824
1.2775	5.509012	0.760300
1.2850	5.498572	0.746661
1.2925	5.487954	0.733857
1.3000	5.477232	0.721836
1.3075	5.466461	0.710546
1.3150	5.455686	0.699939
1.3225	5.444941	0.689969
1.3300	5.434250	0.680595
1.3375	5.423633	0.671780
1.3450	5.413105	0.663491
1.3525	5.402676	0.655700
1.3600	5.392354	0.648382
1.3675	5.382146	0.641513
1.3750	5.372058	0.635075
1.3825	5.362093	0.629053
1.3900	5.352255	0.623431
1.3975	5.342548	0.618199
1.4050	5.332977	0.613347
1.4125	5.323545	0.608866
1.4200	5.314259	0.604751
1.4275	5.305123	0.600996
1.4350	5.296145	0.597596
1.4425	5.287334	0.594549
1.4500	5.278699	0.591852
1.4575	5.270252	0.589503
1.4650	5.262006	0.587498
1.4725	5.253974	0.585836
1.4800	5.246175	0.584513
1.4875	5.238626	0.583526
1.4950	5.231349	0.582870
1.5025	5.224365	0.582536
1.5100	5.217700	0.582516
1.5175	5.211380	0.582798
1.5250	5.205432	0.583366
1.5325	5.199886	0.584200
1.5400	5.194771	0.585276
1.5475	5.190116	0.586567
1.5550	5.185951	0.588036
1.5625	5.182300	0.589644
1.5700	5.179189	0.591345
1.5775	5.176635	0.593087
1.5850	5.174653	0.594813
1.5925	5.173247	0.596460
1.6000	5.172417	0.597962
1.6075	5.172151	0.599252
1.6150	5.172425	0.600261
1.6225	5.173207	0.600921
1.6300	5.174452	0.601170
1.6375	5.176106	0.600950
1.6450	5.178105	0.600212
1.6525	5.180377	0.598916
1.6600	5.182844	0.597037
1.6675	5.185425	0.594558
1.6750	5.188040	0.591478
1.6825	5.190607	0.587809
1.6900	5.193052	0.583575
