Material: inorganic / Bi2Se3 / Fang-8L
Optical constants. M. Fang, Z. Wang, H. Gu, M. Tong, B. Song, X. Xie, T. Zhou, X. Chen, H. Jiang, T. Jiang, S. Liu, Layer-dependent dielectric permittivity of topological insulator Bi2Se3 thin films. Appl. Surf. Sci. 509, 144822 (2020) (Numerical data kindly provided by Baokun Song)
Comments: 8-layer, 8L
Specs: {"n_absolute": true, "wavelength_vacuum": true, "film_thickness": "8L", "substrate": "sapphire"}
wavelength (um)	n	k
0.1930	0.857617	1.298339
0.1960	0.840956	1.345081
0.1990	0.827715	1.382687
0.2020	0.815426	1.416214
0.2050	0.803277	1.448515
0.2080	0.791202	1.481267
0.2110	0.779474	1.515435
0.2140	0.768512	1.551520
0.2170	0.758757	1.589700
0.2200	0.750617	1.629935
0.2230	0.744420	1.672042
0.2260	0.740414	1.715750
0.2290	0.738755	1.760750
0.2320	0.739525	1.806722
0.2350	0.742740	1.853358
0.2380	0.748367	1.900375
0.2410	0.756336	1.947520
0.2440	0.766554	1.994571
0.2470	0.778912	2.041340
0.2500	0.793296	2.087665
0.2530	0.809585	2.133409
0.2560	0.827660	2.178455
0.2590	0.847407	2.222706
0.2620	0.868712	2.266076
0.2650	0.891467	2.308493
0.2680	0.915565	2.349892
0.2710	0.940904	2.390218
0.2740	0.967384	2.429419
0.2770	0.994905	2.467452
0.2800	1.023367	2.504277
0.2830	1.052672	2.539860
0.2860	1.082718	2.574172
0.2890	1.113405	2.607190
0.2920	1.144628	2.638897
0.2950	1.176282	2.669282
0.2980	1.208262	2.698345
0.3010	1.240458	2.726089
0.3040	1.272763	2.752533
0.3070	1.305069	2.777700
0.3100	1.337271	2.801628
0.3130	1.369265	2.824363
0.3160	1.400952	2.845963
0.3190	1.432241	2.866498
0.3220	1.463045	2.886046
0.3250	1.493288	2.904698
0.3280	1.522907	2.922552
0.3310	1.551848	2.939713
0.3340	1.580071	2.956292
0.3370	1.607552	2.972405
0.3400	1.634280	2.988169
0.3430	1.660261	3.003701
0.3460	1.685514	3.019114
0.3490	1.710076	3.034517
0.3520	1.733994	3.050014
0.3550	1.757329	3.065698
0.3580	1.780154	3.081651
0.3610	1.802550	3.097945
0.3640	1.824605	3.114637
0.3670	1.846411	3.131772
0.3700	1.868066	3.149381
0.3730	1.889665	3.167481
0.3760	1.911304	3.186075
0.3790	1.933075	3.205154
0.3820	1.955066	3.224697
0.3850	1.977357	3.244675
0.3880	2.000023	3.265046
0.3910	2.023129	3.285764
0.3940	2.046732	3.306774
0.3970	2.070881	3.328020
0.4000	2.095612	3.349439
0.4030	2.120957	3.370970
0.4060	2.146936	3.392548
0.4090	2.173561	3.414112
0.4120	2.200837	3.435601
0.4150	2.228764	3.456956
0.4180	2.257331	3.478123
0.4210	2.286525	3.499049
0.4240	2.316328	3.519689
0.4270	2.346718	3.539998
0.4300	2.377668	3.559940
0.4330	2.409150	3.579481
0.4360	2.441136	3.598592
0.4390	2.473593	3.617249
0.4420	2.506490	3.635433
0.4450	2.539797	3.653128
0.4480	2.573481	3.670324
0.4510	2.607513	3.687013
0.4540	2.641864	3.703192
0.4570	2.676507	3.718859
0.4600	2.711416	3.734017
0.4630	2.746569	3.748670
0.4660	2.781944	3.762825
0.4690	2.817523	3.776490
0.4720	2.853291	3.789676
0.4750	2.889233	3.802393
0.4780	2.925340	3.814653
0.4810	2.961605	3.826469
0.4840	2.998021	3.837852
0.4870	3.034586	3.848815
0.4900	3.071302	3.859368
0.4930	3.108170	3.869523
0.4960	3.145195	3.879288
0.4990	3.182386	3.888671
0.5020	3.219751	3.897679
0.5050	3.257303	3.906315
0.5080	3.295053	3.914581
0.5110	3.333016	3.922477
0.5140	3.371207	3.929999
0.5170	3.409643	3.937141
0.5200	3.448341	3.943894
0.5230	3.487317	3.950245
0.5260	3.526589	3.956179
0.5290	3.566171	3.961677
0.5320	3.606081	3.966717
0.5350	3.646330	3.971273
0.5380	3.686932	3.975316
0.5410	3.727895	3.978814
0.5440	3.769228	3.981733
0.5470	3.810933	3.984035
0.5500	3.853013	3.985679
0.5530	3.895462	3.986623
0.5560	3.938274	3.986823
0.5590	3.981436	3.986233
0.5620	4.024931	3.984807
0.5650	4.068737	3.982496
0.5680	4.112827	3.979256
0.5710	4.157167	3.975039
0.5740	4.201719	3.969801
0.5770	4.246440	3.963500
0.5800	4.291280	3.956096
0.5830	4.336184	3.947552
0.5860	4.381095	3.937836
0.5890	4.425948	3.926920
0.5920	4.470677	3.914782
0.5950	4.515211	3.901406
0.5980	4.559476	3.886780
0.6010	4.603396	3.870902
0.6040	4.646896	3.853773
0.6070	4.689898	3.835404
0.6100	4.732324	3.815812
0.6130	4.774099	3.795021
0.6160	4.815148	3.773061
0.6190	4.855401	3.749971
0.6220	4.894788	3.725794
0.6250	4.933245	3.700580
0.6280	4.970713	3.674386
0.6310	5.007137	3.647269
0.6340	5.042469	3.619296
0.6370	5.076666	3.590533
0.6400	5.109690	3.561052
0.6430	5.141511	3.530924
0.6460	5.172105	3.500225
0.6490	5.201455	3.469029
0.6520	5.229548	3.437411
0.6550	5.256380	3.405446
0.6580	5.281952	3.373206
0.6610	5.306268	3.340764
0.6640	5.329341	3.308188
0.6670	5.351187	3.275547
0.6700	5.371826	3.242904
0.6730	5.391284	3.210320
0.6760	5.409587	3.177852
0.6790	5.426769	3.145555
0.6820	5.442863	3.113480
0.6850	5.457906	3.081672
0.6880	5.471936	3.050174
0.6910	5.484993	3.019027
0.6940	5.497119	2.988264
0.6970	5.508356	2.957919
0.7000	5.518747	2.928017
0.7030	5.528335	2.898586
0.7060	5.537163	2.869644
0.7090	5.545274	2.841212
0.7120	5.552712	2.813304
0.7150	5.559517	2.785931
0.7180	5.565732	2.759104
0.7210	5.571396	2.732829
0.7240	5.576551	2.707111
0.7270	5.581234	2.681952
0.7300	5.585483	2.657353
0.7330	5.589335	2.633310
0.7360	5.592824	2.609820
0.7390	5.595983	2.586879
0.7420	5.598847	2.564478
0.7450	5.601444	2.542611
0.7480	5.603806	2.521266
0.7510	5.605960	2.500433
0.7540	5.607933	2.480100
0.7570	5.609750	2.460254
0.7600	5.611436	2.440881
0.7630	5.613011	2.421967
0.7660	5.614499	2.403496
0.7690	5.615918	2.385451
0.7720	5.617285	2.367818
0.7750	5.618619	2.350578
0.7780	5.619934	2.333714
0.7810	5.621245	2.317210
0.7840	5.622563	2.301046
0.7870	5.623900	2.285206
0.7900	5.625266	2.269671
0.7930	5.626670	2.254423
0.7960	5.628118	2.239445
0.7990	5.629617	2.224719
0.8020	5.631172	2.210227
0.8050	5.632787	2.195952
0.8080	5.634463	2.181878
0.8110	5.636204	2.167987
0.8140	5.638008	2.154265
0.8170	5.639876	2.140695
0.8200	5.641806	2.127262
0.8230	5.643796	2.113953
0.8260	5.645842	2.100754
0.8290	5.647941	2.087652
0.8320	5.650088	2.074635
0.8350	5.652278	2.061690
0.8380	5.654505	2.048808
0.8410	5.656763	2.035979
0.8440	5.659044	2.023192
0.8470	5.661342	2.010442
0.8500	5.663649	1.997719
0.8530	5.665957	1.985017
0.8560	5.668258	1.972330
0.8590	5.670545	1.959654
0.8620	5.672809	1.946984
0.8650	5.675042	1.934317
0.8680	5.677235	1.921649
0.8710	5.679382	1.908980
0.8740	5.681473	1.896308
0.8770	5.683501	1.883632
0.8800	5.685458	1.870953
0.8830	5.687338	1.858270
0.8860	5.689134	1.845587
0.8890	5.690838	1.832903
0.8920	5.692444	1.820222
0.8950	5.693947	1.807546
0.8980	5.695340	1.794878
0.9010	5.696620	1.782223
0.9040	5.697781	1.769583
0.9070	5.698818	1.756963
0.9100	5.699728	1.744367
0.9130	5.700508	1.731800
0.9160	5.701154	1.719267
0.9190	5.701664	1.706772
0.9220	5.702035	1.694321
0.9250	5.702266	1.681918
0.9280	5.702355	1.669570
0.9310	5.702302	1.657281
0.9340	5.702105	1.645056
0.9370	5.701765	1.632901
0.9400	5.701281	1.620821
0.9430	5.700654	1.608821
0.9460	5.699885	1.596907
0.9490	5.698974	1.585082
0.9520	5.697923	1.573352
0.9550	5.696733	1.561722
0.9580	5.695407	1.550197
0.9610	5.693945	1.538781
0.9640	5.692351	1.527478
0.9670	5.690628	1.516293
0.9700	5.688776	1.505230
0.9730	5.686800	1.494294
0.9760	5.684703	1.483487
0.9790	5.682488	1.472814
0.9820	5.680157	1.462279
0.9850	5.677715	1.451885
0.9880	5.675165	1.441635
0.9910	5.672511	1.431532
0.9940	5.669757	1.421580
0.9970	5.666906	1.411782
1.0000	5.663964	1.402141
1.0075	5.656232	1.378740
1.0150	5.648021	1.356375
1.0225	5.639403	1.335081
1.0300	5.630458	1.314889
1.0375	5.621269	1.295827
1.0450	5.611926	1.277916
1.0525	5.602526	1.261171
1.0600	5.593174	1.245602
1.0675	5.583982	1.231207
1.0750	5.575073	1.217973
1.0825	5.566575	1.205874
1.0900	5.558628	1.194860
1.0975	5.551372	1.184863
1.1050	5.544952	1.175784
1.1125	5.539505	1.167492
1.1200	5.535157	1.159821
1.1275	5.532008	1.152571
1.1350	5.530123	1.145507
1.1425	5.529521	1.138369
1.1500	5.530161	1.130881
1.1575	5.531934	1.122773
1.1650	5.534667	1.113795
1.1725	5.538123	1.103740
1.1800	5.542018	1.092463
1.1875	5.546040	1.079897
1.1950	5.549874	1.066052
1.2025	5.553224	1.051017
1.2100	5.555835	1.034944
1.2175	5.557510	1.018033
1.2250	5.558111	1.000511
1.2325	5.557564	0.982613
1.2400	5.555850	0.964565
1.2475	5.552996	0.946574
1.2550	5.549066	0.928816
1.2625	5.544147	0.911438
1.2700	5.538339	0.894556
1.2775	5.531749	0.878255
1.2850	5.524485	0.862595
1.2925	5.516650	0.847617
1.3000	5.508338	0.833340
1.3075	5.499639	0.819773
1.3150	5.490629	0.806913
1.3225	5.481379	0.794750
1.3300	5.471948	0.783267
1.3375	5.462391	0.772447
1.3450	5.452752	0.762268
1.3525	5.443073	0.752708
1.3600	5.433387	0.743746
1.3675	5.423725	0.735358
1.3750	5.414113	0.727526
1.3825	5.404576	0.720228
1.3900	5.395133	0.713445
1.3975	5.385805	0.707159
1.4050	5.376608	0.701354
1.4125	5.367560	0.696013
1.4200	5.358677	0.691123
1.4275	5.349973	0.686667
1.4350	5.341466	0.682632
1.4425	5.333169	0.679005
1.4500	5.325100	0.675772
1.4575	5.317272	0.672920
1.4650	5.309704	0.670434
1.4725	5.302411	0.668301
1.4800	5.295411	0.666503
1.4875	5.288721	0.665026
1.4950	5.282359	0.663849
1.5025	5.276342	0.662955
1.5100	5.270689	0.662320
1.5175	5.265416	0.661922
1.5250	5.260539	0.661733
1.5325	5.256074	0.661726
1.5400	5.252034	0.661869
1.5475	5.248431	0.662128
1.5550	5.245274	0.662468
1.5625	5.242569	0.662850
1.5700	5.240317	0.663234
1.5775	5.238517	0.663580
1.5850	5.237163	0.663843
1.5925	5.236243	0.663983
1.6000	5.235742	0.663956
1.6075	5.235638	0.663721
1.6150	5.235904	0.663239
1.6225	5.236510	0.662475
1.6300	5.237419	0.661396
1.6375	5.238592	0.659973
1.6450	5.239986	0.658185
1.6525	5.241556	0.656014
1.6600	5.243254	0.653448
1.6675	5.245032	0.650483
1.6750	5.246845	0.647120
1.6825	5.248646	0.643364
1.6900	5.250392	0.639229
