Material: inorganic / Bi2Se3 / Fang-10L
Optical constants. M. Fang, Z. Wang, H. Gu, M. Tong, B. Song, X. Xie, T. Zhou, X. Chen, H. Jiang, T. Jiang, S. Liu, Layer-dependent dielectric permittivity of topological insulator Bi2Se3 thin films. Appl. Surf. Sci. 509, 144822 (2020) (Numerical data kindly provided by Baokun Song)
Comments: 10-layer, 10L
Specs: {"n_absolute": true, "wavelength_vacuum": true, "film_thickness": "10L", "substrate": "sapphire"}
wavelength (um)	n	k
0.1930	0.873488	1.349147
0.1960	0.859220	1.390526
0.1990	0.847116	1.426450
0.2020	0.835760	1.460390
0.2050	0.824784	1.494288
0.2080	0.814284	1.529243
0.2110	0.804561	1.565840
0.2140	0.795980	1.604324
0.2170	0.788898	1.644716
0.2200	0.783617	1.686885
0.2230	0.780373	1.730612
0.2260	0.779330	1.775627
0.2290	0.780580	1.821644
0.2320	0.784161	1.868378
0.2350	0.790060	1.915563
0.2380	0.798231	1.962954
0.2410	0.808600	2.010334
0.2440	0.821079	2.057514
0.2470	0.835566	2.104328
0.2500	0.851957	2.150634
0.2530	0.870145	2.196309
0.2560	0.890022	2.241248
0.2590	0.911483	2.285360
0.2620	0.934423	2.328563
0.2650	0.958742	2.370788
0.2680	0.984340	2.411972
0.2710	1.011118	2.452060
0.2740	1.038980	2.491002
0.2770	1.067826	2.528754
0.2800	1.097560	2.565279
0.2830	1.128082	2.600543
0.2860	1.159292	2.634520
0.2890	1.191088	2.667189
0.2920	1.223367	2.698537
0.2950	1.256023	2.728558
0.2980	1.288952	2.757252
0.3010	1.322046	2.784632
0.3040	1.355201	2.810717
0.3070	1.388310	2.835538
0.3100	1.421271	2.859134
0.3130	1.453987	2.881557
0.3160	1.486363	2.902867
0.3190	1.518311	2.923137
0.3220	1.549753	2.942447
0.3250	1.580619	2.960888
0.3280	1.610850	2.978555
0.3310	1.640399	2.995554
0.3340	1.669230	3.011994
0.3370	1.697325	3.027985
0.3400	1.724676	3.043642
0.3430	1.751291	3.059075
0.3460	1.777193	3.074393
0.3490	1.802417	3.089702
0.3520	1.827011	3.105098
0.3550	1.851035	3.120669
0.3580	1.874559	3.136495
0.3610	1.897659	3.152643
0.3640	1.920422	3.169169
0.3670	1.942936	3.186115
0.3700	1.965292	3.203510
0.3730	1.987584	3.221373
0.3760	2.009902	3.239707
0.3790	2.032335	3.258505
0.3820	2.054966	3.277748
0.3850	2.077875	3.297409
0.3880	2.101133	3.317451
0.3910	2.124804	3.337829
0.3940	2.148944	3.358495
0.3970	2.173601	3.379393
0.4000	2.198814	3.400467
0.4030	2.224612	3.421656
0.4060	2.251020	3.442900
0.4090	2.278050	3.464140
0.4120	2.305709	3.485318
0.4150	2.333999	3.506377
0.4180	2.362913	3.527263
0.4210	2.392439	3.547927
0.4240	2.422563	3.568322
0.4270	2.453263	3.588406
0.4300	2.484516	3.608141
0.4330	2.516298	3.627494
0.4360	2.548580	3.646435
0.4390	2.581333	3.664942
0.4420	2.614528	3.682992
0.4450	2.648135	3.700570
0.4480	2.682124	3.717665
0.4510	2.716468	3.734267
0.4540	2.751137	3.750372
0.4570	2.786106	3.765978
0.4600	2.821351	3.781086
0.4630	2.856849	3.795700
0.4660	2.892580	3.809825
0.4690	2.928526	3.823469
0.4720	2.964672	3.836641
0.4750	3.001004	3.849351
0.4780	3.037513	3.861610
0.4810	3.074191	3.873430
0.4840	3.111034	3.884822
0.4870	3.148039	3.895798
0.4900	3.185207	3.906368
0.4930	3.222542	3.916543
0.4960	3.260048	3.926332
0.4990	3.297734	3.935741
0.5020	3.335609	3.944777
0.5050	3.373686	3.953444
0.5080	3.411979	3.961742
0.5110	3.450502	3.969671
0.5140	3.489272	3.977226
0.5170	3.528306	3.984402
0.5200	3.567622	3.991189
0.5230	3.607239	3.997572
0.5260	3.647175	4.003535
0.5290	3.687446	4.009059
0.5320	3.728071	4.014119
0.5350	3.769063	4.018688
0.5380	3.810436	4.022735
0.5410	3.852201	4.026227
0.5440	3.894368	4.029126
0.5470	3.936939	4.031391
0.5500	3.979918	4.032978
0.5530	4.023301	4.033843
0.5560	4.067080	4.033936
0.5590	4.111245	4.033209
0.5620	4.155776	4.031610
0.5650	4.200650	4.029089
0.5680	4.245840	4.025595
0.5710	4.291309	4.021076
0.5740	4.337017	4.015485
0.5770	4.382917	4.008774
0.5800	4.428956	4.000899
0.5830	4.475075	3.991822
0.5860	4.521212	3.981504
0.5890	4.567297	3.969918
0.5920	4.613258	3.957037
0.5950	4.659017	3.942842
0.5980	4.704494	3.927324
0.6010	4.749609	3.910476
0.6040	4.794276	3.892304
0.6070	4.838413	3.872817
0.6100	4.881935	3.852034
0.6130	4.924760	3.829982
0.6160	4.966807	3.806696
0.6190	5.008000	3.782218
0.6220	5.048264	3.756595
0.6250	5.087531	3.729883
0.6280	5.125737	3.702142
0.6310	5.162825	3.673440
0.6340	5.198742	3.643847
0.6370	5.233443	3.613436
0.6400	5.266892	3.582285
0.6430	5.299055	3.550473
0.6460	5.329911	3.518081
0.6490	5.359440	3.485189
0.6520	5.387634	3.451878
0.6550	5.414490	3.418229
0.6580	5.440008	3.384320
0.6610	5.464199	3.350227
0.6640	5.487078	3.316024
0.6670	5.508662	3.281783
0.6700	5.528977	3.247569
0.6730	5.548050	3.213449
0.6760	5.565914	3.179481
0.6790	5.582604	3.145723
0.6820	5.598156	3.112225
0.6850	5.612613	3.079037
0.6880	5.626016	3.046202
0.6910	5.638408	3.013760
0.6940	5.649834	2.981746
0.6970	5.660338	2.950194
0.7000	5.669968	2.919131
0.7030	5.678768	2.888581
0.7060	5.686785	2.858567
0.7090	5.694064	2.829105
0.7120	5.700649	2.800210
0.7150	5.706586	2.771895
0.7180	5.711918	2.744168
0.7210	5.716687	2.717035
0.7240	5.720935	2.690502
0.7270	5.724702	2.664568
0.7300	5.728027	2.639234
0.7330	5.730948	2.614498
0.7360	5.733501	2.590355
0.7390	5.735723	2.566800
0.7420	5.737646	2.543824
0.7450	5.739302	2.521420
0.7480	5.740724	2.499577
0.7510	5.741941	2.478284
0.7540	5.742980	2.457528
0.7570	5.743869	2.437295
0.7600	5.744633	2.417572
0.7630	5.745296	2.398343
0.7660	5.745880	2.379592
0.7690	5.746406	2.361302
0.7720	5.746894	2.343457
0.7750	5.747363	2.326037
0.7780	5.747828	2.309027
0.7810	5.748306	2.292405
0.7840	5.748810	2.276155
0.7870	5.749353	2.260256
0.7900	5.749946	2.244689
0.7930	5.750600	2.229436
0.7960	5.751323	2.214476
0.7990	5.752121	2.199790
0.8020	5.753002	2.185360
0.8050	5.753970	2.171165
0.8080	5.755027	2.157188
0.8110	5.756177	2.143410
0.8140	5.757421	2.129813
0.8170	5.758758	2.116380
0.8200	5.760188	2.103093
0.8230	5.761707	2.089936
0.8260	5.763314	2.076893
0.8290	5.765003	2.063949
0.8320	5.766770	2.051090
0.8350	5.768609	2.038303
0.8380	5.770513	2.025573
0.8410	5.772476	2.012890
0.8440	5.774489	2.000243
0.8470	5.776545	1.987621
0.8500	5.778634	1.975015
0.8530	5.780747	1.962418
0.8560	5.782874	1.949821
0.8590	5.785008	1.937219
0.8620	5.787136	1.924606
0.8650	5.789250	1.911978
0.8680	5.791339	1.899330
0.8710	5.793394	1.886662
0.8740	5.795405	1.873970
0.8770	5.797363	1.861255
0.8800	5.799257	1.848514
0.8830	5.801080	1.835751
0.8860	5.802822	1.822964
0.8890	5.804475	1.810158
0.8920	5.806031	1.797333
0.8950	5.807483	1.784494
0.8980	5.808823	1.771643
0.9010	5.810046	1.758786
0.9040	5.811144	1.745926
0.9070	5.812113	1.733068
0.9100	5.812947	1.720219
0.9130	5.813643	1.707382
0.9160	5.814195	1.694564
0.9190	5.814601	1.681771
0.9220	5.814858	1.669009
0.9250	5.814962	1.656283
0.9280	5.814913	1.643601
0.9310	5.814709	1.630968
0.9340	5.814348	1.618390
0.9370	5.813831	1.605875
0.9400	5.813157	1.593426
0.9430	5.812326	1.581052
0.9460	5.811338	1.568758
0.9490	5.810196	1.556549
0.9520	5.808900	1.544431
0.9550	5.807451	1.532410
0.9580	5.805852	1.520492
0.9610	5.804105	1.508680
0.9640	5.802211	1.496982
0.9670	5.800175	1.485400
0.9700	5.797998	1.473941
0.9730	5.795685	1.462608
0.9760	5.793236	1.451406
0.9790	5.790658	1.440339
0.9820	5.787952	1.429411
0.9850	5.785122	1.418626
0.9880	5.782173	1.407988
0.9910	5.779108	1.397499
0.9940	5.775931	1.387164
0.9970	5.772646	1.376986
1.0000	5.769257	1.366967
1.0075	5.760360	1.342636
1.0150	5.750911	1.319364
1.0225	5.740982	1.297187
1.0300	5.730647	1.276141
1.0375	5.719986	1.256256
1.0450	5.709082	1.237560
1.0525	5.698025	1.220077
1.0600	5.686913	1.203828
1.0675	5.675850	1.188828
1.0750	5.664952	1.175084
1.0825	5.654345	1.162594
1.0900	5.644169	1.151342
1.0975	5.634576	1.141293
1.1050	5.625725	1.132388
1.1125	5.617786	1.124537
1.1200	5.610929	1.117614
1.1275	5.605317	1.111446
1.1350	5.601092	1.105817
1.1425	5.598359	1.100461
1.1500	5.597171	1.095073
1.1575	5.597512	1.089316
1.1650	5.599277	1.082848
1.1725	5.602274	1.075343
1.1800	5.606224	1.066526
1.1875	5.610776	1.056196
1.1950	5.615536	1.044256
1.2025	5.620102	1.030711
1.2100	5.624097	1.015676
1.2175	5.627200	0.999349
1.2250	5.629166	0.981992
1.2325	5.629837	0.963899
1.2400	5.629135	0.945368
1.2475	5.627056	0.926681
1.2550	5.623655	0.908087
1.2625	5.619026	0.889793
1.2700	5.613289	0.871965
1.2775	5.606576	0.854726
1.2850	5.599023	0.838164
1.2925	5.590759	0.822335
1.3000	5.581906	0.807269
1.3075	5.572574	0.792978
1.3150	5.562860	0.779461
1.3225	5.552850	0.766703
1.3300	5.542616	0.754686
1.3375	5.532222	0.743386
1.3450	5.521721	0.732777
1.3525	5.511157	0.722830
1.3600	5.500571	0.713520
1.3675	5.489993	0.704821
1.3750	5.479453	0.696708
1.3825	5.468973	0.689157
1.3900	5.458576	0.682147
1.3975	5.448278	0.675659
1.4050	5.438099	0.669675
1.4125	5.428052	0.664179
1.4200	5.418153	0.659155
1.4275	5.408416	0.654591
1.4350	5.398855	0.650474
1.4425	5.389485	0.646792
1.4500	5.380322	0.643535
1.4575	5.371380	0.640692
1.4650	5.362678	0.638253
1.4725	5.354231	0.636207
1.4800	5.346060	0.634543
1.4875	5.338184	0.633249
1.4950	5.330625	0.632310
1.5025	5.323404	0.631713
1.5100	5.316544	0.631439
1.5175	5.310068	0.631468
1.5250	5.304002	0.631778
1.5325	5.298369	0.632342
1.5400	5.293191	0.633130
1.5475	5.288491	0.634109
1.5550	5.284290	0.635242
1.5625	5.280604	0.636485
1.5700	5.277447	0.637793
1.5775	5.274829	0.639116
1.5850	5.272754	0.640403
1.5925	5.271219	0.641597
1.6000	5.270216	0.642642
1.6075	5.269728	0.643480
1.6150	5.269731	0.644055
1.6225	5.270192	0.644314
1.6300	5.271071	0.644205
1.6375	5.272321	0.643683
1.6450	5.273887	0.642709
1.6525	5.275711	0.641253
1.6600	5.277730	0.639291
1.6675	5.279879	0.636810
1.6750	5.282091	0.633807
1.6825	5.284302	0.630286
1.6900	5.286449	0.626261
