Material: inorganic / Bi2Se3 / Fang-4L
Optical constants. M. Fang, Z. Wang, H. Gu, M. Tong, B. Song, X. Xie, T. Zhou, X. Chen, H. Jiang, T. Jiang, S. Liu, Layer-dependent dielectric permittivity of topological insulator Bi2Se3 thin films. Appl. Surf. Sci. 509, 144822 (2020) (Numerical data kindly provided by Baokun Song)
Comments: 4-layer, 4L
Specs: {"n_absolute": true, "wavelength_vacuum": true, "film_thickness": "4L", "substrate": "sapphire"}
wavelength (um)	n	k
0.1930	0.911368	1.448455
0.1960	0.889687	1.476566
0.1990	0.870892	1.508214
0.2020	0.855095	1.542877
0.2050	0.842340	1.580060
0.2080	0.832619	1.619315
0.2110	0.825882	1.660235
0.2140	0.822049	1.702463
0.2170	0.821017	1.745683
0.2200	0.822677	1.789626
0.2230	0.826911	1.834055
0.2260	0.833604	1.878768
0.2290	0.842642	1.923587
0.2320	0.853917	1.968358
0.2350	0.867325	2.012944
0.2380	0.882771	2.057221
0.2410	0.900162	2.101077
0.2440	0.919412	2.144409
0.2470	0.940437	2.187118
0.2500	0.963156	2.229113
0.2530	0.987490	2.270305
0.2560	1.013359	2.310609
0.2590	1.040681	2.349941
0.2620	1.069373	2.388223
0.2650	1.099349	2.425376
0.2680	1.130517	2.461328
0.2710	1.162782	2.496008
0.2740	1.196041	2.529351
0.2770	1.230188	2.561297
0.2800	1.265106	2.591796
0.2830	1.300677	2.620802
0.2860	1.336774	2.648282
0.2890	1.373265	2.674214
0.2920	1.410016	2.698586
0.2950	1.446887	2.721403
0.2980	1.483739	2.742683
0.3010	1.520434	2.762460
0.3040	1.556835	2.780784
0.3070	1.592812	2.797722
0.3100	1.628243	2.813357
0.3130	1.663015	2.827786
0.3160	1.697030	2.841121
0.3190	1.730202	2.853486
0.3220	1.762465	2.865014
0.3250	1.793771	2.875847
0.3280	1.824088	2.886129
0.3310	1.853410	2.896008
0.3340	1.881746	2.905630
0.3370	1.909129	2.915133
0.3400	1.935607	2.924651
0.3430	1.961246	2.934306
0.3460	1.986128	2.944207
0.3490	2.010347	2.954449
0.3520	2.034007	2.965109
0.3550	2.057216	2.976250
0.3580	2.080092	2.987916
0.3610	2.102748	3.000132
0.3640	2.125302	3.012908
0.3670	2.147863	3.026239
0.3700	2.170539	3.040104
0.3730	2.193426	3.054469
0.3760	2.216615	3.069289
0.3790	2.240185	3.084510
0.3820	2.264204	3.100070
0.3850	2.288729	3.115901
0.3880	2.313808	3.131932
0.3910	2.339476	3.148090
0.3940	2.365757	3.164302
0.3970	2.392667	3.180492
0.4000	2.420211	3.196592
0.4030	2.448387	3.212531
0.4060	2.477184	3.228246
0.4090	2.506586	3.243677
0.4120	2.536570	3.258768
0.4150	2.567109	3.273469
0.4180	2.598172	3.287736
0.4210	2.629726	3.301529
0.4240	2.661735	3.314814
0.4270	2.694160	3.327562
0.4300	2.726963	3.339751
0.4330	2.760106	3.351361
0.4360	2.793550	3.362380
0.4390	2.827257	3.372796
0.4420	2.861192	3.382605
0.4450	2.895318	3.391804
0.4480	2.929602	3.400395
0.4510	2.964013	3.408383
0.4540	2.998521	3.415774
0.4570	3.033101	3.422577
0.4600	3.067726	3.428804
0.4630	3.102376	3.434468
0.4660	3.137030	3.439581
0.4690	3.171672	3.444159
0.4720	3.206288	3.448218
0.4750	3.240866	3.451773
0.4780	3.275397	3.454841
0.4810	3.309874	3.457436
0.4840	3.344292	3.459575
0.4870	3.378651	3.461271
0.4900	3.412949	3.462538
0.4930	3.447188	3.463388
0.4960	3.481372	3.463832
0.4990	3.515507	3.463880
0.5020	3.549599	3.463539
0.5050	3.583655	3.462814
0.5080	3.617685	3.461710
0.5110	3.651698	3.460227
0.5140	3.685704	3.458365
0.5170	3.719713	3.456121
0.5200	3.753735	3.453488
0.5230	3.787780	3.450460
0.5260	3.821856	3.447025
0.5290	3.855971	3.443171
0.5320	3.890132	3.438884
0.5350	3.924343	3.434145
0.5380	3.958608	3.428936
0.5410	3.992926	3.423236
0.5440	4.027297	3.417023
0.5470	4.061716	3.410273
0.5500	4.096174	3.402961
0.5530	4.130662	3.395062
0.5560	4.165164	3.386551
0.5590	4.199665	3.377403
0.5620	4.234144	3.367592
0.5650	4.268574	3.357094
0.5680	4.302930	3.345888
0.5710	4.337181	3.333953
0.5740	4.371291	3.321271
0.5770	4.405224	3.307826
0.5800	4.438941	3.293606
0.5830	4.472400	3.278602
0.5860	4.505557	3.262808
0.5890	4.538367	3.246223
0.5920	4.570784	3.228851
0.5950	4.602761	3.210698
0.5980	4.634252	3.191776
0.6010	4.665211	3.172100
0.6040	4.695593	3.151691
0.6070	4.725353	3.130574
0.6100	4.754451	3.108775
0.6130	4.782848	3.086328
0.6160	4.810505	3.063268
0.6190	4.837392	3.039633
0.6220	4.863476	3.015463
0.6250	4.888732	2.990803
0.6280	4.913137	2.965698
0.6310	4.936673	2.940193
0.6340	4.959324	2.914337
0.6370	4.981079	2.888177
0.6400	5.001931	2.861763
0.6430	5.021877	2.835140
0.6460	5.040917	2.808358
0.6490	5.059056	2.781463
0.6520	5.076299	2.754500
0.6550	5.092658	2.727512
0.6580	5.108145	2.700542
0.6610	5.122776	2.673630
0.6640	5.136568	2.646815
0.6670	5.149542	2.620133
0.6700	5.161720	2.593617
0.6730	5.173125	2.567299
0.6760	5.183781	2.541210
0.6790	5.193714	2.515374
0.6820	5.202951	2.489819
0.6850	5.211520	2.464565
0.6880	5.219448	2.439634
0.6910	5.226763	2.415044
0.6940	5.233495	2.390811
0.6970	5.239670	2.366948
0.7000	5.245319	2.343469
0.7030	5.250468	2.320383
0.7060	5.255147	2.297700
0.7090	5.259381	2.275426
0.7120	5.263200	2.253567
0.7150	5.266628	2.232127
0.7180	5.269693	2.211108
0.7210	5.272419	2.190512
0.7240	5.274832	2.170339
0.7270	5.276955	2.150588
0.7300	5.278813	2.131256
0.7330	5.280428	2.112340
0.7360	5.281821	2.093837
0.7390	5.283014	2.075740
0.7420	5.284028	2.058045
0.7450	5.284883	2.040745
0.7480	5.285596	2.023832
0.7510	5.286188	2.007298
0.7540	5.286673	1.991134
0.7570	5.287071	1.975331
0.7600	5.287395	1.959879
0.7630	5.287661	1.944769
0.7660	5.287883	1.929987
0.7690	5.288074	1.915524
0.7720	5.288247	1.901368
0.7750	5.288412	1.887507
0.7780	5.288582	1.873927
0.7810	5.288764	1.860617
0.7840	5.288969	1.847563
0.7870	5.289205	1.834753
0.7900	5.289477	1.822173
0.7930	5.289794	1.809810
0.7960	5.290159	1.797650
0.7990	5.290577	1.785680
0.8020	5.291052	1.773886
0.8050	5.291587	1.762256
0.8080	5.292183	1.750777
0.8110	5.292842	1.739435
0.8140	5.293562	1.728217
0.8170	5.294344	1.717113
0.8200	5.295187	1.706108
0.8230	5.296087	1.695193
0.8260	5.297043	1.684356
0.8290	5.298050	1.673587
0.8320	5.299104	1.662875
0.8350	5.300200	1.652211
0.8380	5.301333	1.641586
0.8410	5.302496	1.630993
0.8440	5.303685	1.620423
0.8470	5.304892	1.609870
0.8500	5.306110	1.599328
0.8530	5.307331	1.588791
0.8560	5.308549	1.578255
0.8590	5.309755	1.567716
0.8620	5.310942	1.557171
0.8650	5.312103	1.546617
0.8680	5.313229	1.536053
0.8710	5.314313	1.525478
0.8740	5.315347	1.514890
0.8770	5.316325	1.504291
0.8800	5.317238	1.493681
0.8830	5.318081	1.483062
0.8860	5.318847	1.472435
0.8890	5.319528	1.461804
0.8920	5.320121	1.451170
0.8950	5.320618	1.440538
0.8980	5.321015	1.429911
0.9010	5.321308	1.419293
0.9040	5.321491	1.408689
0.9070	5.321562	1.398103
0.9100	5.321516	1.387540
0.9130	5.321351	1.377006
0.9160	5.321063	1.366505
0.9190	5.320652	1.356042
0.9220	5.320115	1.345624
0.9250	5.319450	1.335256
0.9280	5.318657	1.324943
0.9310	5.317736	1.314691
0.9340	5.316685	1.304506
0.9370	5.315506	1.294392
0.9400	5.314198	1.284357
0.9430	5.312762	1.274405
0.9460	5.311200	1.264541
0.9490	5.309513	1.254771
0.9520	5.307702	1.245101
0.9550	5.305769	1.235535
0.9580	5.303718	1.226080
0.9610	5.301549	1.216738
0.9640	5.299265	1.207517
0.9670	5.296871	1.198421
0.9700	5.294367	1.189454
0.9730	5.291759	1.180622
0.9760	5.289049	1.171929
0.9790	5.286241	1.163381
0.9820	5.283340	1.154981
0.9850	5.280348	1.146734
0.9880	5.277272	1.138646
0.9910	5.274116	1.130720
0.9940	5.270884	1.122962
0.9970	5.267582	1.115375
1.0000	5.264216	1.107966
1.0075	5.255561	1.090244
1.0150	5.246650	1.073726
1.0225	5.237611	1.058479
1.0300	5.228597	1.044569
1.0375	5.219794	1.032044
1.0450	5.211424	1.020934
1.0525	5.203752	1.011229
1.0600	5.197084	1.002862
1.0675	5.191758	0.995676
1.0750	5.188119	0.989401
1.0825	5.186473	0.983623
1.0900	5.187028	0.977781
1.0975	5.189807	0.971195
1.1050	5.194580	0.963136
1.1125	5.200835	0.952951
1.1200	5.207816	0.940197
1.1275	5.214634	0.924745
1.1350	5.220431	0.906811
1.1425	5.224524	0.886892
1.1500	5.226495	0.865647
1.1575	5.226198	0.843761
1.1650	5.223714	0.821843
1.1725	5.219271	0.800370
1.1800	5.213169	0.779672
1.1875	5.205726	0.759953
1.1950	5.197240	0.741309
1.2025	5.187971	0.723768
1.2100	5.178133	0.707308
1.2175	5.167902	0.691877
1.2250	5.157412	0.677410
1.2325	5.146768	0.663836
1.2400	5.136050	0.651084
1.2475	5.125316	0.639085
1.2550	5.114608	0.627775
1.2625	5.103959	0.617100
1.2700	5.093390	0.607006
1.2775	5.082918	0.597448
1.2850	5.072551	0.588386
1.2925	5.062296	0.579785
1.3000	5.052157	0.571613
1.3075	5.042134	0.563844
1.3150	5.032229	0.556454
1.3225	5.022439	0.549422
1.3300	5.012763	0.542730
1.3375	5.003199	0.536362
1.3450	4.993744	0.530307
1.3525	4.984396	0.524551
1.3600	4.975153	0.519086
1.3675	4.966012	0.513904
1.3750	4.956973	0.508998
1.3825	4.948032	0.504363
1.3900	4.939190	0.499996
1.3975	4.930447	0.495893
1.4050	4.921803	0.492052
1.4125	4.913259	0.488474
1.4200	4.904818	0.485159
1.4275	4.896483	0.482107
1.4350	4.888259	0.479319
1.4425	4.880152	0.476800
1.4500	4.872168	0.474551
1.4575	4.864318	0.472575
1.4650	4.856613	0.470875
1.4725	4.849066	0.469455
1.4800	4.841691	0.468317
1.4875	4.834508	0.467463
1.4950	4.827536	0.466893
1.5025	4.820799	0.466605
1.5100	4.814323	0.466597
1.5175	4.808135	0.466860
1.5250	4.802268	0.467383
1.5325	4.796752	0.468152
1.5400	4.791623	0.469144
1.5475	4.786916	0.470333
1.5550	4.782664	0.471682
1.5625	4.778899	0.473148
1.5700	4.775650	0.474682
1.5775	4.772937	0.476223
1.5850	4.770776	0.477704
1.5925	4.769169	0.479054
1.6000	4.768108	0.480195
1.6075	4.767570	0.481048
1.6150	4.767516	0.481537
1.6225	4.767895	0.481589
1.6300	4.768639	0.481141
1.6375	4.769669	0.480142
1.6450	4.770896	0.478557
1.6525	4.772226	0.476368
1.6600	4.773564	0.473573
1.6675	4.774818	0.470190
1.6750	4.775903	0.466253
1.6825	4.776744	0.461807
1.6900	4.777277	0.456912
