Material: inorganic / GaP / Khmelevskaia
Optical constants. D. Khmelevskaia, D.I. Markina, V.V. Fedorov, G.A. Ermolaev, A.V. Arsenin, V.S. Volkov, A.S. Goltaev, Yu.M. Zadiranov, I.A. Tzibizov, A.P. Pushkarev, A.K. Samusev, A.A. Shcherbakov, P.A. Belov, I.S. Mukhin, S.V. Makarov. Directly grown crystalline gallium phosphide on sapphire for nonlinear all-dielectric nanophotonics, Appl. Phys. Lett., 118, 201101 (2021) (Numerical data kindly provided by Georgy Ermolaev)
wavelength (um)	n	k
0.235	2.61161	3.74054
0.239	2.89493	3.93207
0.243	3.26313	3.94671
0.247	3.58488	3.82601
0.251	3.84123	3.64003
0.255	4.03560	3.41475
0.259	4.15936	3.16625
0.263	4.20525	2.93066
0.267	4.20010	2.74311
0.271	4.18355	2.60258
0.275	4.16787	2.49083
0.279	4.15298	2.39966
0.283	4.14061	2.32770
0.287	4.13515	2.27272
0.291	4.13985	2.22967
0.295	4.15479	2.19397
0.299	4.17882	2.16364
0.303	4.21310	2.13862
0.307	4.26144	2.11752
0.311	4.32807	2.09401
0.315	4.41212	2.06046
0.319	4.51210	2.01088
0.323	4.62528	1.93520
0.327	4.74052	1.82385
0.331	4.84033	1.67192
0.335	4.90136	1.49011
0.339	4.91751	1.30079
0.343	4.89278	1.12075
0.347	4.83724	0.96218
0.351	4.76190	0.82829
0.355	4.67369	0.72064
0.359	4.58017	0.64148
0.363	4.49310	0.58989
0.367	4.42075	0.55657
0.371	4.36477	0.53180
0.375	4.32269	0.50691
0.379	4.28679	0.47641
0.383	4.25016	0.44296
0.387	4.21087	0.41035
0.391	4.16913	0.38186
0.395	4.12715	0.36018
0.399	4.08901	0.34509
0.403	4.05655	0.33385
0.407	4.02999	0.32397
0.411	4.00863	0.31320
0.415	3.99071	0.29967
0.419	3.97357	0.28323
0.423	3.95584	0.26504
0.427	3.93696	0.24611
0.431	3.91677	0.22736
0.435	3.89543	0.20959
0.439	3.87351	0.19336
0.443	3.85158	0.17864
0.447	3.82989	0.16529
0.451	3.80859	0.15320
0.455	3.78778	0.14226
0.459	3.76753	0.13237
0.463	3.74789	0.12344
0.467	3.72890	0.11538
0.471	3.71058	0.10811
0.475	3.69294	0.10156
0.479	3.67599	0.09565
0.483	3.65972	0.09032
0.487	3.64415	0.08550
0.491	3.62927	0.08112
0.495	3.61508	0.07711
0.499	3.60156	0.07340
0.503	3.58868	0.06991
0.507	3.57640	0.06657
0.511	3.56466	0.06333
0.515	3.55342	0.06013
0.519	3.54258	0.05691
0.523	3.53204	0.05369
0.527	3.52173	0.05049
0.531	3.51159	0.04738
0.535	3.50162	0.04439
0.539	3.49181	0.04155
0.543	3.48215	0.03892
0.547	3.47267	0.03652
0.551	3.46339	0.03438
0.555	3.45436	0.03252
0.559	3.44566	0.03091
0.563	3.43732	0.02951
0.567	3.42935	0.02825
0.571	3.42174	0.02710
0.575	3.41448	0.02599
0.579	3.40756	0.02490
0.583	3.40095	0.02378
0.587	3.39462	0.02260
0.591	3.38853	0.02132
0.595	3.38261	0.01992
0.599	3.37679	0.01841
0.603	3.37103	0.01682
0.607	3.36530	0.01520
0.611	3.35960	0.01356
0.615	3.35390	0.01194
0.619	3.34820	0.01036
0.623	3.34251	0.00885
0.627	3.33682	0.00743
0.631	3.33116	0.00612
0.635	3.32553	0.00495
0.639	3.31995	0.00392
0.643	3.31446	0.00305
0.647	3.30908	0.00233
0.651	3.30384	0.00174
0.655	3.29873	0.00126
0.659	3.29377	0.00089
0.663	3.28895	0.00060
0.667	3.28429	0.00038
0.671	3.27977	0.00022
0.675	3.27541	0.00012
0.679	3.27118	0.00005
0.683	3.26710	0.00002
0.687	3.26315	0
0.691	3.25933	0
0.695	3.25562	0
0.699	3.25203	0
0.703	3.24853	0
0.707	3.24512	0
0.711	3.24181	0
0.715	3.23858	0
0.719	3.23543	0
0.723	3.23235	0
0.727	3.22935	0
0.731	3.22642	0
0.735	3.22355	0
0.739	3.22075	0
0.743	3.21801	0
0.747	3.21534	0
0.751	3.21272	0
0.755	3.21016	0
0.759	3.20765	0
0.763	3.20519	0
0.767	3.20279	0
0.771	3.20043	0
0.775	3.19812	0
0.779	3.19586	0
0.783	3.19364	0
0.787	3.19147	0
0.791	3.18934	0
0.795	3.18725	0
0.799	3.18520	0
0.803	3.18318	0
0.807	3.18121	0
0.811	3.17927	0
0.815	3.17737	0
0.819	3.17550	0
0.823	3.17367	0
0.827	3.17187	0
0.831	3.17010	0
0.835	3.16837	0
0.839	3.16666	0
0.843	3.16498	0
0.847	3.16334	0
0.851	3.16172	0
0.855	3.16013	0
0.859	3.15856	0
0.863	3.15702	0
0.867	3.15551	0
0.871	3.15402	0
0.875	3.15256	0
0.879	3.15112	0
0.883	3.14970	0
0.887	3.14831	0
0.891	3.14694	0
0.895	3.14559	0
0.899	3.14426	0
0.903	3.14295	0
0.907	3.14167	0
0.911	3.14040	0
0.915	3.13915	0
0.919	3.13792	0
0.923	3.13671	0
0.927	3.13552	0
0.931	3.13435	0
0.935	3.13319	0
0.939	3.13206	0
0.943	3.13093	0
0.947	3.12983	0
0.951	3.12874	0
0.955	3.12767	0
0.959	3.12661	0
0.963	3.12556	0
0.967	3.12454	0
0.971	3.12352	0
0.975	3.12252	0
0.979	3.12154	0
0.983	3.12057	0
0.987	3.11961	0
0.991	3.11866	0
0.995	3.11773	0
0.999	3.11681	0
1.003	3.11591	0
1.007	3.11501	0
1.011	3.11413	0
1.015	3.11326	0
1.019	3.11240	0
1.023	3.11155	0
1.027	3.11072	0
1.031	3.10989	0
1.035	3.10908	0
1.039	3.10827	0
1.043	3.10748	0
1.047	3.10670	0
1.051	3.10592	0
1.055	3.10516	0
1.059	3.10440	0
1.063	3.10366	0
1.067	3.10292	0
1.071	3.10220	0
1.075	3.10148	0
1.079	3.10077	0
1.083	3.10007	0
1.087	3.09938	0
1.091	3.09870	0
1.095	3.09803	0
1.099	3.09736	0
1.103	3.09670	0
1.107	3.09605	0
1.111	3.09541	0
1.115	3.09478	0
1.119	3.09415	0
1.123	3.09353	0
1.127	3.09292	0
1.131	3.09231	0
1.135	3.09171	0
1.139	3.09112	0
1.143	3.09054	0
1.147	3.08996	0
1.151	3.08939	0
1.155	3.08882	0
1.159	3.08827	0
1.163	3.08771	0
1.167	3.08717	0
1.171	3.08663	0
1.175	3.08609	0
1.179	3.08557	0
1.183	3.08504	0
1.187	3.08453	0
1.191	3.08402	0
1.195	3.08351	0
1.199	3.08301	0
1.203	3.08252	0
1.207	3.08203	0
1.211	3.08155	0
1.215	3.08107	0
1.219	3.08059	0
1.223	3.08013	0
1.227	3.07966	0
1.231	3.07920	0
1.235	3.07875	0
1.239	3.07830	0
1.243	3.07786	0
1.247	3.07742	0
1.251	3.07698	0
1.255	3.07655	0
1.259	3.07613	0
1.263	3.07571	0
1.267	3.07529	0
1.271	3.07488	0
1.275	3.07447	0
1.279	3.07406	0
1.283	3.07366	0
1.287	3.07326	0
1.291	3.07287	0
1.295	3.07248	0
1.299	3.07210	0
1.303	3.07172	0
1.307	3.07134	0
1.311	3.07096	0
1.315	3.07059	0
1.319	3.07023	0
1.323	3.06987	0
1.327	3.06951	0
1.331	3.06915	0
1.335	3.06880	0
1.339	3.06845	0
1.343	3.06810	0
1.347	3.06776	0
1.351	3.06743	0
1.355	3.06712	0
1.359	3.06681	0
1.363	3.06650	0
1.367	3.06619	0
1.371	3.06588	0
1.375	3.06557	0
1.379	3.06526	0
1.383	3.06495	0
1.387	3.06464	0
1.391	3.06433	0
1.395	3.06402	0
1.399	3.06371	0
1.403	3.06339	0
1.407	3.06308	0
1.411	3.06277	0
1.415	3.06246	0
1.419	3.06215	0
1.423	3.06184	0
1.427	3.06154	0
1.431	3.06125	0
1.435	3.06097	0
1.439	3.06070	0
1.443	3.06042	0
1.447	3.06015	0
1.451	3.05988	0
1.455	3.05961	0
1.459	3.05935	0
1.463	3.05908	0
1.467	3.05882	0
1.471	3.05856	0
1.475	3.05831	0
1.479	3.05805	0
1.483	3.05780	0
1.487	3.05755	0
1.491	3.05730	0
1.495	3.05706	0
1.499	3.05681	0
1.503	3.05657	0
1.507	3.05633	0
1.511	3.05609	0
1.515	3.05586	0
1.519	3.05563	0
1.523	3.05539	0
1.527	3.05516	0
1.531	3.05494	0
1.535	3.05471	0
1.539	3.05449	0
1.543	3.05426	0
1.547	3.05404	0
1.551	3.05382	0
1.555	3.05361	0
1.559	3.05339	0
1.563	3.05318	0
1.567	3.05297	0
1.571	3.05276	0
1.575	3.05255	0
1.579	3.05234	0
1.583	3.05214	0
1.587	3.05193	0
1.591	3.05173	0
1.595	3.05153	0
1.599	3.05133	0
1.603	3.05113	0
1.607	3.05094	0
1.611	3.05074	0
1.615	3.05055	0
1.619	3.05036	0
1.623	3.05017	0
1.627	3.04998	0
1.631	3.04980	0
1.635	3.04961	0
1.639	3.04943	0
1.643	3.04924	0
1.647	3.04906	0
1.651	3.04888	0
1.655	3.04870	0
1.659	3.04853	0
1.663	3.04835	0
1.667	3.04818	0
1.671	3.04800	0
1.675	3.04783	0
1.679	3.04766	0
1.683	3.04749	0
1.687	3.04732	0
1.691	3.04716	0
1.695	3.04699	0
1.699	3.04683	0
