Material: inorganic / AlN / Beliaev1
Optical constants. 1) L. Yu. Beliaev, E. Shkondin, A. V. Lavrinenko, O. Takayama. Thickness-dependent optical properties of aluminum nitride films for mid-infrared wavelengths, J. Vac. Sci. Technol. A 39, 043408 (2021)2) L. Yu. Beliaev, E. Shkondin, A. V. Lavrinenko, O. Takayama. Erratum: Thickness-dependent optical properties of aluminum nitride films for mid-infrared wavelengths [J. Vac. Sci. Technol. A 39, 043408 (2021)], J. Vac. Sci. Technol. A 40, 027001 (2022)(Numerical data kindly provided by Osamu Takayama)
Comments: 303 nm thick aluminum nitride (AlN) film deposited by reactive sputtering.
wavelength (um)	n	k
0.21140	2.57024	1.22370E-01
0.21456	2.54612	1.07910E-01
0.21772	2.52348	9.55200E-02
0.22089	2.50221	8.48400E-02
0.22405	2.48220	7.56000E-02
0.22721	2.46336	6.75900E-02
0.23038	2.44560	6.06100E-02
0.23354	2.42884	5.45100E-02
0.23671	2.41302	4.91700E-02
0.23987	2.39806	4.44700E-02
0.24304	2.38390	4.03200E-02
0.24621	2.37050	3.66500E-02
0.24937	2.35780	3.34000E-02
0.25254	2.34575	3.05000E-02
0.25571	2.33431	2.79200E-02
0.25887	2.32344	2.56200E-02
0.26204	2.31310	2.35500E-02
0.26521	2.30327	2.16900E-02
0.26838	2.29391	2.00200E-02
0.27155	2.28498	1.85100E-02
0.27472	2.27647	1.71400E-02
0.27789	2.26835	1.59100E-02
0.28106	2.26060	1.47900E-02
0.28423	2.25319	1.37600E-02
0.28740	2.24611	1.28300E-02
0.29057	2.23934	1.19900E-02
0.29374	2.23285	1.12100E-02
0.29691	2.22664	1.05000E-02
0.30008	2.22069	9.85000E-03
0.30325	2.21498	9.25000E-03
0.30643	2.20950	8.69000E-03
0.30960	2.20425	8.19000E-03
0.31277	2.19920	7.72000E-03
0.31595	2.19435	7.28000E-03
0.31912	2.18968	6.88000E-03
0.32229	2.18520	6.51000E-03
0.32547	2.18088	6.16000E-03
0.32864	2.17672	5.84000E-03
0.33181	2.17272	5.54000E-03
0.33499	2.16886	5.27000E-03
0.33816	2.16515	5.01000E-03
0.34134	2.16156	4.76000E-03
0.34451	2.15810	4.54000E-03
0.34769	2.15476	4.33000E-03
0.35086	2.15153	4.13000E-03
0.35404	2.14842	3.94000E-03
0.35721	2.14541	3.77000E-03
0.36039	2.14250	3.60000E-03
0.36357	2.13968	3.45000E-03
0.36674	2.13696	3.30000E-03
0.36992	2.13432	3.17000E-03
0.37310	2.13177	3.04000E-03
0.37627	2.12930	2.92000E-03
0.37945	2.12690	2.80000E-03
0.38263	2.12458	2.69000E-03
0.38581	2.12234	2.59000E-03
0.38898	2.12015	2.49000E-03
0.39216	2.11804	2.40000E-03
0.39534	2.11598	2.32000E-03
0.39852	2.11399	2.23000E-03
0.40169	2.11206	2.15000E-03
0.40487	2.11018	2.08000E-03
0.40805	2.10835	2.01000E-03
0.41123	2.10658	1.94000E-03
0.41441	2.10485	1.88000E-03
0.41759	2.10318	1.82000E-03
0.42077	2.10155	1.76000E-03
0.42394	2.09996	1.70000E-03
0.42712	2.09842	1.65000E-03
0.43030	2.09692	1.60000E-03
0.43348	2.09545	1.55000E-03
0.43666	2.09403	1.50000E-03
0.43984	2.09264	1.46000E-03
0.44302	2.09129	1.42000E-03
0.44620	2.08998	1.38000E-03
0.44938	2.08869	1.34000E-03
0.45256	2.08744	1.30000E-03
0.45574	2.08622	1.27000E-03
0.45892	2.08503	1.23000E-03
0.46210	2.08387	1.20000E-03
0.46528	2.08274	1.17000E-03
0.46846	2.08164	1.14000E-03
0.47164	2.08056	1.11000E-03
0.47482	2.07950	1.08000E-03
0.47800	2.07848	1.05000E-03
0.48118	2.07747	1.03000E-03
0.48436	2.07649	1.00000E-03
0.48754	2.07553	9.77580E-04
0.49072	2.07460	9.54643E-04
0.49390	2.07368	9.32158E-04
0.49708	2.07279	9.10610E-04
0.50026	2.07191	8.89999E-04
0.50344	2.07106	8.69846E-04
0.50662	2.07022	8.50634E-04
0.50980	2.06940	8.31883E-04
0.51298	2.06860	8.13835E-04
0.51616	2.06782	7.96492E-04
0.51934	2.06705	7.79613E-04
0.52252	2.06630	7.63442E-04
0.52569	2.06557	7.47495E-04
0.52887	2.06485	7.32258E-04
0.53205	2.06414	7.17490E-04
0.53523	2.06345	7.03191E-04
0.53841	2.06277	6.89363E-04
0.54159	2.06211	6.76006E-04
0.54477	2.06146	6.62879E-04
0.54795	2.06083	6.50467E-04
0.55113	2.06020	6.38044E-04
0.55431	2.05959	6.26338E-04
0.55749	2.05899	6.14864E-04
0.56067	2.05840	6.03623E-04
0.56385	2.05783	5.92858E-04
0.56703	2.05726	5.82327E-04
0.57020	2.05671	5.72031E-04
0.57338	2.05616	5.61969E-04
0.57656	2.05563	5.52385E-04
0.57974	2.05511	5.43038E-04
0.58292	2.05459	5.33926E-04
0.58610	2.05409	5.25051E-04
0.58927	2.05359	5.16412E-04
0.59245	2.05311	5.08011E-04
0.59563	2.05263	4.99847E-04
0.59881	2.05216	4.91921E-04
0.60198	2.05170	4.83989E-04
0.60516	2.05125	4.76540E-04
0.60834	2.05080	4.69085E-04
0.61151	2.05037	4.62113E-04
0.61469	2.04994	4.55136E-04
0.61787	2.04951	4.48155E-04
0.62104	2.04910	4.41657E-04
0.62422	2.04869	4.35155E-04
0.62740	2.04829	4.28894E-04
0.63057	2.04790	4.22628E-04
0.63375	2.04751	4.16603E-04
0.63692	2.04713	4.10819E-04
0.64010	2.04676	4.05031E-04
0.64327	2.04639	3.99484E-04
0.64645	2.04603	3.93934E-04
0.64962	2.04567	3.88625E-04
0.65280	2.04532	3.83558E-04
0.65597	2.04498	3.78244E-04
0.65914	2.04464	3.73416E-04
0.66232	2.04431	3.68585E-04
0.66549	2.04398	3.63752E-04
0.66866	2.04365	3.59161E-04
0.67184	2.04334	3.54567E-04
0.67501	2.04302	3.50216E-04
0.67818	2.04272	3.45863E-04
0.68135	2.04241	3.41508E-04
0.68452	2.04211	3.37396E-04
0.68770	2.04182	3.33281E-04
0.69087	2.04153	3.29410E-04
0.69404	2.04124	3.25537E-04
0.69721	2.04096	3.21662E-04
0.70038	2.04069	3.17785E-04
0.70355	2.04041	3.14152E-04
0.70672	2.04015	3.10517E-04
0.70989	2.03988	3.07126E-04
0.71306	2.03962	3.03733E-04
0.71623	2.03936	3.00339E-04
0.71940	2.03911	2.96943E-04
0.72256	2.03886	2.93791E-04
0.72573	2.03862	2.90638E-04
0.72890	2.03837	2.87484E-04
0.73207	2.03813	2.84329E-04
0.73523	2.03790	2.81417E-04
0.73840	2.03767	2.78505E-04
0.74157	2.03744	2.75591E-04
0.74473	2.03721	2.72677E-04
0.74790	2.03699	2.70006E-04
0.75106	2.03677	2.67090E-04
0.75423	2.03655	2.64417E-04
0.75739	2.03634	2.61990E-04
0.76056	2.03613	2.59316E-04
0.76372	2.03592	2.56886E-04
0.76688	2.03572	2.54210E-04
0.77004	2.03551	2.51779E-04
0.77321	2.03532	2.49347E-04
0.77637	2.03512	2.47160E-04
0.77953	2.03492	2.44727E-04
0.78269	2.03473	2.42538E-04
0.78585	2.03454	2.40349E-04
0.78901	2.03436	2.38159E-04
0.79217	2.03417	2.35968E-04
0.79533	2.03399	2.33777E-04
0.79849	2.03381	2.31585E-04
0.80165	2.03363	2.29638E-04
0.80481	2.03346	2.27691E-04
0.80797	2.03329	2.25743E-04
0.81113	2.03312	2.23794E-04
0.81428	2.03295	2.21845E-04
0.81744	2.03278	2.19896E-04
0.82059	2.03262	2.17945E-04
0.82375	2.03246	2.16241E-04
0.82691	2.03230	2.14290E-04
0.83006	2.03214	2.12584E-04
0.83321	2.03198	2.10878E-04
0.83637	2.03183	2.09171E-04
0.83952	2.03168	2.07464E-04
0.84267	2.03153	2.05757E-04
0.84583	2.03138	2.04295E-04
0.84898	2.03123	2.02587E-04
0.85213	2.03108	2.00878E-04
0.85528	2.03094	1.99415E-04
0.85843	2.03080	1.97952E-04
0.86158	2.03066	1.96488E-04
0.86473	2.03052	1.94778E-04
0.86788	2.03039	1.93313E-04
0.87103	2.03025	1.92095E-04
0.87417	2.03012	1.90629E-04
0.87732	2.02998	1.89164E-04
0.88047	2.02985	1.87698E-04
0.88361	2.02973	1.86478E-04
0.88676	2.02960	1.85012E-04
0.88990	2.02947	1.83792E-04
0.89305	2.02935	1.82325E-04
0.89619	2.02922	1.81104E-04
0.89934	2.02910	1.79882E-04
0.90248	2.02898	1.78661E-04
0.90562	2.02886	1.77439E-04
0.90876	2.02875	1.76217E-04
0.91190	2.02863	1.74995E-04
0.91504	2.02851	1.73772E-04
0.91818	2.02840	1.72550E-04
0.92132	2.02829	1.71573E-04
0.92446	2.02818	1.70350E-04
0.92760	2.02807	1.69127E-04
0.93074	2.02796	1.68149E-04
0.93387	2.02785	1.66925E-04
0.93701	2.02774	1.65948E-04
0.94014	2.02764	1.64970E-04
0.94328	2.02753	1.63746E-04
0.94641	2.02743	1.62767E-04
0.94955	2.02733	1.61789E-04
0.95268	2.02723	1.60811E-04
0.95581	2.02713	1.59832E-04
0.95894	2.02703	1.58853E-04
0.96207	2.02693	1.57874E-04
0.96520	2.02684	1.56895E-04
0.96833	2.02674	1.55915E-04
0.97146	2.02665	1.54936E-04
0.97459	2.02655	1.54203E-04
0.97772	2.02646	1.53223E-04
0.98085	2.02637	1.52243E-04
0.98397	2.02628	1.51509E-04
0.98710	2.02619	1.50529E-04
0.99022	2.02610	1.49549E-04
0.99335	2.02601	1.48815E-04
0.99647	2.02592	1.47834E-04
0.99959	2.02584	1.47100E-04
1.01400	2.02545	1.43425E-04
1.02080	2.02527	1.41709E-04
1.02759	2.02510	1.39993E-04
1.03439	2.02493	1.38523E-04
1.04118	2.02476	1.36806E-04
1.04798	2.02460	1.35335E-04
1.05479	2.02444	1.33864E-04
1.06159	2.02428	1.32393E-04
1.06839	2.02413	1.30920E-04
1.07520	2.02398	1.29695E-04
1.08201	2.02383	1.28222E-04
1.08882	2.02369	1.26996E-04
1.09563	2.02355	1.25522E-04
1.10245	2.02341	1.24295E-04
1.10926	2.02327	1.23068E-04
1.11608	2.02314	1.21841E-04
1.12290	2.02300	1.20613E-04
1.12972	2.02288	1.19632E-04
1.13654	2.02275	1.18403E-04
1.14337	2.02263	1.17174E-04
1.15020	2.02250	1.16193E-04
1.15702	2.02238	1.15211E-04
1.16385	2.02227	1.13981E-04
1.17069	2.02215	1.12999E-04
1.17752	2.02204	1.12016E-04
1.18436	2.02193	1.11033E-04
1.19119	2.02182	1.10050E-04
1.19803	2.02171	1.09066E-04
1.20487	2.02160	1.08083E-04
1.21172	2.02150	1.07346E-04
1.21856	2.02140	1.06362E-04
1.22541	2.02130	1.05625E-04
1.23225	2.02120	1.04641E-04
1.23910	2.02110	1.03904E-04
1.24596	2.02100	1.02919E-04
1.25281	2.02091	1.02182E-04
1.25966	2.02082	1.01444E-04
1.26652	2.02073	1.00706E-04
1.27338	2.02064	9.97210E-05
1.28024	2.02055	9.89829E-05
1.28710	2.02046	9.82447E-05
1.29397	2.02038	9.75064E-05
1.30083	2.02030	9.70155E-05
1.30770	2.02021	9.62769E-05
1.31457	2.02013	9.55383E-05
1.32144	2.02005	9.47995E-05
1.32832	2.01997	9.40606E-05
1.33519	2.01990	9.35691E-05
1.34207	2.01982	9.28300E-05
1.34895	2.01975	9.23383E-05
1.35583	2.01967	9.15990E-05
1.36271	2.01960	9.11071E-05
1.36959	2.01953	9.03676E-05
1.37648	2.01946	8.98756E-05
1.38336	2.01939	8.91359E-05
1.39025	2.01932	8.86437E-05
1.39714	2.01925	8.81514E-05
1.40404	2.01919	8.74114E-05
1.41093	2.01912	8.69190E-05
1.41783	2.01906	8.64264E-05
1.42472	2.01899	8.59339E-05
1.43162	2.01893	8.54412E-05
1.43853	2.01887	8.49485E-05
1.44543	2.01881	8.44557E-05
1.45233	2.01875	8.39628E-05
1.45924	2.01869	8.34699E-05
1.46615	2.01863	8.29769E-05
1.47306	2.01858	8.24839E-05
1.47997	2.01852	8.19908E-05
1.48689	2.01846	8.14976E-05
1.49380	2.01841	8.10044E-05
1.50072	2.01835	8.05111E-05
1.50764	2.01830	8.00178E-05
1.51456	2.01825	7.97721E-05
1.52148	2.01820	7.92787E-05
1.52841	2.01815	7.87852E-05
1.53533	2.01810	7.82917E-05
1.54226	2.01805	7.80458E-05
1.54919	2.01800	7.75522E-05
1.55612	2.01795	7.73063E-05
1.56306	2.01790	7.68125E-05
1.56999	2.01785	7.63188E-05
1.57693	2.01781	7.60727E-05
1.58387	2.01776	7.55789E-05
1.59081	2.01771	7.53328E-05
1.59775	2.01767	7.48388E-05
1.60469	2.01763	7.45926E-05
1.61164	2.01758	7.40986E-05
1.61859	2.01754	7.38524E-05
1.62554	2.01750	7.33583E-05
1.63249	2.01745	7.31119E-05
1.63944	2.01741	7.28656E-05
1.64640	2.01737	7.23714E-05
1.65335	2.01733	7.21250E-05
1.66031	2.01729	7.18786E-05
1.66727	2.01725	7.13842E-05
1.67423	2.01721	7.11377E-05
1.68120	2.01717	7.08912E-05
1.68816	2.01714	7.03968E-05
