Material: inorganic / AlN / Beliaev2
Optical constants. 1) L. Yu. Beliaev, E. Shkondin, A. V. Lavrinenko, O. Takayama. Thickness-dependent optical properties of aluminum nitride films for mid-infrared wavelengths, J. Vac. Sci. Technol. A 39, 043408 (2021)2) L. Yu. Beliaev, E. Shkondin, A. V. Lavrinenko, O. Takayama. Erratum: Thickness-dependent optical properties of aluminum nitride films for mid-infrared wavelengths [J. Vac. Sci. Technol. A 39, 043408 (2021)], J. Vac. Sci. Technol. A 40, 027001 (2022)(Numerical data kindly provided by Osamu Takayama)
Comments: 303 nm thick aluminum nitride (AlN) film deposited by reactive sputtering.
wavelength (um)	n	k
2.00111	2.16565	7.10112E-05
2.00575	2.16557	7.15210E-05
2.01042	2.16550	7.20356E-05
2.01511	2.16542	7.25555E-05
2.01982	2.16534	7.30802E-05
2.02455	2.16526	7.36103E-05
2.02931	2.16518	7.41452E-05
2.03408	2.16510	7.46856E-05
2.03888	2.16502	7.52311E-05
2.04370	2.16494	7.57822E-05
2.04855	2.16486	7.63384E-05
2.05342	2.16478	7.69002E-05
2.05831	2.16470	7.74677E-05
2.06322	2.16461	7.80410E-05
2.06816	2.16453	7.86197E-05
2.07312	2.16444	7.92042E-05
2.07811	2.16436	7.97948E-05
2.08312	2.16427	8.03909E-05
2.08815	2.16419	8.09935E-05
2.09321	2.16410	8.16019E-05
2.09829	2.16401	8.22166E-05
2.10340	2.16392	8.28373E-05
2.10853	2.16383	8.34643E-05
2.11369	2.16374	8.40980E-05
2.11887	2.16365	8.47381E-05
2.12408	2.16356	8.53847E-05
2.12931	2.16347	8.60380E-05
2.13457	2.16338	8.66978E-05
2.13986	2.16328	8.73646E-05
2.14517	2.16319	8.80383E-05
2.15051	2.16310	8.87189E-05
2.15587	2.16300	8.94068E-05
2.16127	2.16290	9.01018E-05
2.16668	2.16281	9.08040E-05
2.17213	2.16271	9.15137E-05
2.17760	2.16261	9.22306E-05
2.18311	2.16251	9.29553E-05
2.18863	2.16241	9.36878E-05
2.19419	2.16231	9.44279E-05
2.19978	2.16221	9.51758E-05
2.20539	2.16211	9.59319E-05
2.21103	2.16200	9.66959E-05
2.21671	2.16190	9.74682E-05
2.22241	2.16180	9.82489E-05
2.22814	2.16169	9.90378E-05
2.23390	2.16158	9.98354E-05
2.23969	2.16147	1.00642E-04
2.24551	2.16137	1.01457E-04
2.25136	2.16126	1.02281E-04
2.25724	2.16115	1.03113E-04
2.26315	2.16104	1.03956E-04
2.26909	2.16092	1.04807E-04
2.27507	2.16081	1.05668E-04
2.28107	2.16070	1.06538E-04
2.28711	2.16058	1.07418E-04
2.29318	2.16047	1.08308E-04
2.29928	2.16035	1.09208E-04
2.30541	2.16023	1.10117E-04
2.31158	2.16012	1.11038E-04
2.31778	2.16000	1.11968E-04
2.32401	2.15987	1.12909E-04
2.33028	2.15975	1.13861E-04
2.33658	2.15963	1.14823E-04
2.34292	2.15951	1.15796E-04
2.34929	2.15938	1.16781E-04
2.35569	2.15926	1.17777E-04
2.36213	2.15913	1.18784E-04
2.36860	2.15900	1.19803E-04
2.37511	2.15887	1.20834E-04
2.38166	2.15874	1.21876E-04
2.38824	2.15861	1.22931E-04
2.39486	2.15848	1.23998E-04
2.40152	2.15835	1.25078E-04
2.40821	2.15821	1.26171E-04
2.41494	2.15808	1.27276E-04
2.42171	2.15794	1.28394E-04
2.42851	2.15780	1.29526E-04
2.43536	2.15766	1.30671E-04
2.44224	2.15752	1.31830E-04
2.44916	2.15738	1.33002E-04
2.45612	2.15723	1.34189E-04
2.46312	2.15709	1.35390E-04
2.47016	2.15694	1.36606E-04
2.47725	2.15680	1.37836E-04
2.48437	2.15665	1.39082E-04
2.49153	2.15650	1.40342E-04
2.49873	2.15635	1.41618E-04
2.50598	2.15620	1.42910E-04
2.51327	2.15604	1.44217E-04
2.52060	2.15589	1.45541E-04
2.52797	2.15573	1.46881E-04
2.53539	2.15557	1.48238E-04
2.54285	2.15541	1.49612E-04
2.55036	2.15525	1.51003E-04
2.55791	2.15509	1.52412E-04
2.56550	2.15492	1.53838E-04
2.57314	2.15476	1.55282E-04
2.58082	2.15459	1.56745E-04
2.58855	2.15442	1.58226E-04
2.59633	2.15425	1.59726E-04
2.60416	2.15408	1.61246E-04
2.61203	2.15391	1.62785E-04
2.61995	2.15373	1.64344E-04
2.62791	2.15355	1.65923E-04
2.63593	2.15337	1.67523E-04
2.64400	2.15320	1.69144E-04
2.65211	2.15301	1.70785E-04
2.66027	2.15283	1.72449E-04
2.66849	2.15264	1.74134E-04
2.67676	2.15245	1.75842E-04
2.68507	2.15227	1.77572E-04
2.69344	2.15207	1.79325E-04
2.70186	2.15188	1.81102E-04
2.71034	2.15169	1.82903E-04
2.71886	2.15149	1.84728E-04
2.72745	2.15129	1.86577E-04
2.73608	2.15109	1.88452E-04
2.74477	2.15089	1.90352E-04
2.75352	2.15068	1.92278E-04
2.76232	2.15047	1.94231E-04
2.77118	2.15027	1.96210E-04
2.78009	2.15005	1.98217E-04
2.78907	2.14984	2.00251E-04
2.79810	2.14962	2.02314E-04
2.80719	2.14940	2.04406E-04
2.81634	2.14919	2.06527E-04
2.82554	2.14896	2.08678E-04
2.83481	2.14874	2.10859E-04
2.84414	2.14851	2.13072E-04
2.85354	2.14828	2.15315E-04
2.86299	2.14805	2.17591E-04
2.87251	2.14782	2.19899E-04
2.88209	2.14758	2.22241E-04
2.89173	2.14734	2.24616E-04
2.90144	2.14710	2.27026E-04
2.91122	2.14685	2.29471E-04
2.92106	2.14660	2.31952E-04
2.93096	2.14636	2.35283E-04
2.94094	2.14610	2.37640E-04
2.95098	2.14585	2.39998E-04
2.96109	2.14559	2.42358E-04
2.97128	2.14533	2.44718E-04
2.98153	2.14506	2.47079E-04
2.99185	2.14480	2.49441E-04
3.00224	2.14453	2.54135E-04
3.01271	2.14425	2.56500E-04
3.02325	2.14398	2.58865E-04
3.03386	2.14370	2.61231E-04
3.04455	2.14342	2.65931E-04
3.05532	2.14313	2.68299E-04
3.06616	2.14284	2.70669E-04
3.07708	2.14255	2.73039E-04
3.08807	2.14225	2.77745E-04
3.09915	2.14195	2.80118E-04
3.11030	2.14165	2.82492E-04
3.12154	2.14135	2.87202E-04
3.13285	2.14104	2.89579E-04
3.14425	2.14073	2.94293E-04
3.15574	2.14041	2.96672E-04
3.16730	2.14009	3.01389E-04
3.17895	2.13976	3.03772E-04
3.19069	2.13944	3.08492E-04
3.20252	2.13910	3.10878E-04
3.21443	2.13877	3.15602E-04
3.22643	2.13843	3.17990E-04
3.23852	2.13808	3.22719E-04
3.25071	2.13774	3.27449E-04
3.26298	2.13738	3.29842E-04
3.27535	2.13703	3.34577E-04
3.28781	2.13667	3.39314E-04
3.30037	2.13630	3.44053E-04
3.31302	2.13593	3.48794E-04
3.32577	2.13555	3.51197E-04
3.33862	2.13517	3.55943E-04
3.35157	2.13479	3.60691E-04
3.36462	2.13440	3.65442E-04
3.37777	2.13401	3.70196E-04
3.39102	2.13361	3.74952E-04
3.40438	2.13320	3.79711E-04
3.41785	2.13279	3.84473E-04
3.43142	2.13238	3.89237E-04
3.44510	2.13196	3.94004E-04
3.45889	2.13153	4.01120E-04
3.47279	2.13110	4.05894E-04
3.48680	2.13066	4.10671E-04
3.50093	2.13022	4.15450E-04
3.51517	2.12977	4.22581E-04
3.52953	2.12931	4.27368E-04
3.54400	2.12885	4.32157E-04
3.55860	2.12839	4.39300E-04
3.57331	2.12791	4.44097E-04
3.58815	2.12743	4.51248E-04
3.60311	2.12694	4.58404E-04
3.61820	2.12645	4.63213E-04
3.63341	2.12595	4.70378E-04
3.64875	2.12544	4.77547E-04
3.66422	2.12493	4.82369E-04
3.67983	2.12441	4.89549E-04
3.69556	2.12388	4.96733E-04
3.71144	2.12334	5.03923E-04
3.72744	2.12280	5.11119E-04
3.74359	2.12224	5.18319E-04
3.75988	2.12168	5.25526E-04
3.77631	2.12112	5.35096E-04
3.79289	2.12054	5.42315E-04
3.80961	2.11995	5.49541E-04
3.82648	2.11936	5.59131E-04
3.84350	2.11876	5.66370E-04
3.86067	2.11814	5.75976E-04
3.87799	2.11752	5.83229E-04
3.89547	2.11689	5.92850E-04
3.91311	2.11625	6.02480E-04
3.93091	2.11560	6.09755E-04
3.94888	2.11494	6.19402E-04
3.96700	2.11427	6.29058E-04
3.98530	2.11359	6.38723E-04
4.00376	2.11290	6.50764E-04
4.02240	2.11220	6.60449E-04
4.04121	2.11149	6.70144E-04
4.06020	2.11076	6.82218E-04
4.07937	2.11003	6.91935E-04
4.09872	2.10928	7.04032E-04
4.11825	2.10852	7.13771E-04
4.13797	2.10775	7.25893E-04
4.15788	2.10696	7.38029E-04
4.17798	2.10616	7.50179E-04
4.19828	2.10535	7.62343E-04
4.21878	2.10453	7.76896E-04
4.23947	2.10369	7.89090E-04
4.26037	2.10284	8.01299E-04
4.28148	2.10197	8.15901E-04
4.30280	2.10109	8.30522E-04
4.32433	2.10019	8.45161E-04
4.34608	2.09928	8.59819E-04
4.36805	2.09835	8.74497E-04
4.39024	2.09740	8.89195E-04
4.41266	2.09644	9.06297E-04
4.43531	2.09546	9.21037E-04
4.45819	2.09447	9.38186E-04
4.48131	2.09345	9.55360E-04
4.50467	2.09242	9.72558E-04
4.52828	2.09137	9.89783E-04
4.55213	2.09030	1.00943E-03
4.57624	2.08921	1.02671E-03
4.60060	2.08810	1.04641E-03
4.62522	2.08696	1.06614E-03
4.65011	2.08581	1.08591E-03
4.67527	2.08463	1.10811E-03
4.70070	2.08343	1.12794E-03
4.72641	2.08221	1.15022E-03
4.75241	2.08097	1.17253E-03
4.77869	2.07970	1.19729E-03
4.80526	2.07840	1.21969E-03
4.83213	2.07708	1.24454E-03
4.85930	2.07573	1.26943E-03
4.88678	2.07436	1.29679E-03
4.91457	2.07295	1.32178E-03
4.94268	2.07152	1.34925E-03
4.97112	2.07006	1.37677E-03
4.99988	2.06857	1.40677E-03
5.02898	2.06705	1.43683E-03
5.05841	2.06549	1.46696E-03
5.08820	2.06390	1.49959E-03
5.11834	2.06228	1.53229E-03
5.14883	2.06062	1.56507E-03
5.17970	2.05892	1.60035E-03
5.21093	2.05719	1.63573E-03
5.24254	2.05542	1.67119E-03
5.27454	2.05360	1.70919E-03
5.30693	2.05175	1.74972E-03
5.33973	2.04985	1.79037E-03
5.37293	2.04791	1.83113E-03
5.40654	2.04593	1.87445E-03
5.44058	2.04390	1.91791E-03
5.47505	2.04181	1.96394E-03
5.50996	2.03968	2.01257E-03
5.54532	2.03750	2.06135E-03
5.58114	2.03527	2.11275E-03
5.61742	2.03297	2.16432E-03
5.65417	2.03062	2.21853E-03
5.69141	2.02821	2.27540E-03
5.72914	2.02574	2.33495E-03
5.76738	2.02321	2.39471E-03
5.80613	2.02061	2.45718E-03
5.84541	2.01794	2.52237E-03
5.88522	2.01520	2.59031E-03
5.92557	2.01239	2.66102E-03
5.96648	2.00950	2.73452E-03
6.00797	2.00653	2.80833E-03
6.05003	2.00347	2.88748E-03
6.09269	2.00034	2.96950E-03
6.13595	1.99711	3.05442E-03
6.17983	1.99379	3.14477E-03
6.22434	1.99037	3.23558E-03
6.26950	1.98685	3.33191E-03
6.31532	1.98323	3.43380E-03
6.36181	1.97949	3.53626E-03
6.40899	1.97564	3.64691E-03
6.45688	1.97167	3.76077E-03
6.50549	1.96758	3.88040E-03
6.55484	1.96336	4.00590E-03
6.60494	1.95900	4.13477E-03
6.65581	1.95449	4.27221E-03
6.70747	1.94984	4.41575E-03
6.75994	1.94503	4.56549E-03
6.81324	1.94005	4.72152E-03
6.86738	1.93491	4.88654E-03
6.92240	1.92958	5.06070E-03
6.97830	1.92406	5.24413E-03
7.03511	1.91834	5.43700E-03
7.09285	1.91240	5.63950E-03
7.15155	1.90625	5.85180E-03
7.21123	1.89986	6.07676E-03
7.27191	1.89322	6.31463E-03
7.33363	1.88632	6.56834E-03
7.39640	1.87915	6.83289E-03
7.46025	1.87168	7.11662E-03
7.52522	1.86389	7.41727E-03
7.59133	1.85578	7.73529E-03
7.65860	1.84732	8.07388E-03
7.72709	1.83848	8.43361E-03
7.79680	1.82924	8.81787E-03
7.86779	1.81958	9.23016E-03
7.94008	1.80946	9.66862E-03
8.01372	1.79886	1.01398E-02
8.08873	1.78773	1.06448E-02
8.16516	1.77605	1.11849E-02
8.24304	1.76376	1.17703E-02
8.32243	1.75083	1.24027E-02
8.40336	1.73719	1.30844E-02
8.48588	1.72279	1.38235E-02
8.57004	1.70757	1.46261E-02
8.65588	1.69145	1.55015E-02
8.74347	1.67435	1.64571E-02
8.83284	1.65619	1.75071E-02
8.92405	1.63685	1.86578E-02
9.01717	1.61622	1.99262E-02
9.11226	1.59416	2.13341E-02
9.20937	1.57052	2.28969E-02
9.30857	1.54511	2.46454E-02
9.40994	1.51774	2.66087E-02
9.51353	1.48813	2.88281E-02
9.61943	1.45602	3.13492E-02
9.72772	1.42103	3.42359E-02
9.83847	1.38273	3.75741E-02
9.95178	1.34062	4.14735E-02
10.0677	1.29401	4.60777E-02
10.1864	1.24207	5.16033E-02
10.3079	1.18371	5.83503E-02
10.4323	1.11745	6.67861E-02
10.5598	1.04123	7.76680E-02
10.6905	0.95206	9.23315E-02
10.8244	0.84531	1.13425E-01
10.9617	0.71344	1.47117E-01
11.1025	0.54509	2.11652E-01
11.2470	0.35238	3.61457E-01
11.3953	0.23890	5.91491E-01
11.5476	0.19559	8.05833E-01
11.7040	0.17701	9.99187E-01
11.8647	0.16911	1.18157E+00
12.0299	0.16726	1.35987E+00
12.1997	0.16971	1.53893E+00
12.3744	0.17581	1.72269E+00
12.5542	0.18553	1.91486E+00
12.7393	0.19928	2.11934E+00
12.9299	0.21794	2.34075E+00
13.1263	0.24300	2.58481E+00
13.3287	0.27692	2.85923E+00
13.5375	0.32379	3.17479E+00
13.7530	0.39079	3.54747E+00
13.9754	0.49149	4.00231E+00
14.2051	0.65404	4.58108E+00
14.4425	0.94557	5.35808E+00
14.6880	1.55995	6.46759E+00
14.9420	3.20439	8.02378E+00
15.2049	7.58001	7.92063E+00
15.4772	8.85744	3.48622E+00
15.7595	7.47495	1.55388E+00
16.0522	6.45757	8.70765E-01
16.3561	5.78065	5.62175E-01
16.6716	5.30520	3.96106E-01
16.9996	4.95323	2.95813E-01
17.3407	4.68176	2.30211E-01
17.6958	4.46567	1.84734E-01
18.0658	4.28934	1.51787E-01
18.4515	4.14258	1.27079E-01
18.8541	4.01847	1.08029E-01
19.2746	3.91209	9.29988E-02
19.7144	3.81989	8.09132E-02
