Material: glass / barberini / D0391
Optical constants. Barberini D0391 glass specifications, 2010-06
Comments: 20 Â°CNormal Crown Glass (Uni/Bifocal); Colour: clear; Application: UV-absorbing glass for corrective lenses also suitable for technical applications
wavelength (um)	n
0.43583	1.5341
0.47999	1.5297
0.48613	1.5292
0.54607	1.5251
0.58756	1.5230
0.58929	1.5229
0.64385	1.5207
0.65627	1.5203
