Material: glass / barberini / D6526-D6626
Optical constants. Barberini D6526/D6626 glass specifications, 2010-11
Comments: 20 °CPhotochromic Glass; Colour: brown; Application: Glass sensitive to light for corrective lenses and sun glare filter; luminous transmittance range 89% (τ0) / 27% (τ1) or filter categories 0 / 2 respectively and UV-absorption
wavelength (um)	n
0.43583	1.5342
0.47999	1.5298
0.48613	1.5293
0.54607	1.5251
0.58756	1.5229
0.58929	1.5228
0.64385	1.5205
0.65627	1.5201
