Material: glass / barberini / D9148
Optical constants. Barberini D9148 glass specifications, 2010-08
Comments: 20 Â°CSun Protection Glass; Colour: dark rose; Application: light tinted sunglare filter with contrast intensification red / yellow and high UV - absorption filter category 1 acc. to DIN EN 1836
wavelength (um)	n
0.43583	1.5602
0.47999	1.5547
0.48613	1.5541
0.54607	1.5490
0.58756	1.5464
0.58929	1.5464
0.64385	1.5437
0.65627	1.5432
