Material: glass / sumita / K-BaF8
Optical constants. SUMITA Zemax catalog 2017-02-02 (obtained from http://www.sumita-opt.co.jp)See also SUMITA optical glass data book
Specs: {"n_absolute": false, "wavelength_vacuum": false, "temperature": "20.0 °C", "thermal_dispersion": [{"type": "Schott formula", "coefficients": "7.3e-07 1.78e-08 -2.34e-10 5.81e-07 1.81e-11 0.234"}], "nd": 1.62374, "Vd": 47.1, "glass_code": 624471, "density": "3.02 g/cm3", "thermal_expansion": [{"temperature_range": "-30 70 °C", "coefficient": "6.7e-06 K-1"}, {"temperature_range": "20 300 °C", "coefficient": "9.8e-06 K-1"}], "dPgF": 0.0001, "climatic_resistance": 1.0, "acid_resistance": 2.0}
Dispersion formula 3, range 0.36 1.55 um, coefficients 2.5830562 -0.01131971 2 0.018817464 -2 0.00027063309 -4 2.1527561e-05 -6 7.7761941e-07 -8
wavelength (um)	k
0.340	8.7776E-06
0.350	3.4286E-06
0.360	1.5067E-06
0.370	7.5430E-07
0.380	4.1071E-07
0.390	2.4531E-07
0.400	1.5658E-07
0.420	9.1481E-08
0.440	6.3599E-08
0.460	5.5324E-08
0.480	4.2250E-08
0.500	2.3945E-08
0.550	1.7542E-08
0.600	1.9137E-08
0.650	1.5541E-08
0.700	1.6736E-08
0.800	1.9127E-08
1.060	1.6887E-08
1.500	4.7842E-08
2.000	3.7033E-07
