Material: glass / sumita / K-BaFn1
Optical constants. SUMITA Zemax catalog 2017-02-02 (obtained from http://www.sumita-opt.co.jp)See also SUMITA optical glass data book
Specs: {"n_absolute": false, "wavelength_vacuum": false, "temperature": "20.0 °C", "thermal_dispersion": [{"type": "Schott formula", "coefficients": "-8.23e-07 1.72e-08 -1.68e-10 5.4e-07 8.98e-10 0.251"}], "nd": 1.6825, "Vd": 44.5, "glass_code": 683445, "density": "3.62 g/cm3", "thermal_expansion": [{"temperature_range": "-30 70 °C", "coefficient": "7.3e-06 K-1"}, {"temperature_range": "20 300 °C", "coefficient": "8.4e-06 K-1"}], "dPgF": -0.0003, "climatic_resistance": 1.0, "acid_resistance": 4.0}
Dispersion formula 3, range 0.36 1.55 um, coefficients 2.7669297 -0.011669996 2 0.02151984 -2 0.00070810281 -4 -2.495822e-05 -6 3.7747946e-06 -8
wavelength (um)	k
0.330	1.4500E-05
0.340	1.5717E-05
0.350	6.5855E-06
0.360	2.9109E-06
0.370	1.4218E-06
0.380	7.8251E-07
0.390	4.5727E-07
0.400	2.9321E-07
0.420	1.4690E-07
0.440	1.0304E-07
0.460	8.5176E-08
0.480	5.7730E-08
0.500	3.9989E-08
0.550	2.1939E-08
0.600	1.9137E-08
0.650	2.0732E-08
0.700	1.1152E-08
0.800	1.9127E-08
1.060	1.6887E-08
1.500	3.5864E-08
2.000	3.3778E-07
