Material: glass / sumita / K-BaSF5
Optical constants. SUMITA Zemax catalog 2017-02-02 (obtained from http://www.sumita-opt.co.jp)See also SUMITA optical glass data book
Specs: {"n_absolute": false, "wavelength_vacuum": false, "temperature": "20.0 °C", "thermal_dispersion": [{"type": "Schott formula", "coefficients": "-1.33e-06 1.61e-08 -2.3e-10 5.78e-07 6.96e-10 0.262"}], "nd": 1.60323, "Vd": 42.5, "glass_code": 603425, "density": "2.71 g/cm3", "thermal_expansion": [{"temperature_range": "-30 70 °C", "coefficient": "7.9e-06 K-1"}, {"temperature_range": "20 300 °C", "coefficient": "1.02e-05 K-1"}], "dPgF": 0.0005, "climatic_resistance": 2.0, "acid_resistance": 3.0}
Dispersion formula 3, range 0.36 1.55 um, coefficients 2.5165762 -0.01183779 2 0.017631594 -2 0.00095834052 -4 -6.7623905e-05 -6 6.2543393e-06 -8
wavelength (um)	k
0.340	1.6814E-05
0.350	5.9287E-06
0.360	2.0671E-06
0.370	8.3920E-07
0.380	4.1765E-07
0.390	2.3860E-07
0.400	1.5324E-07
0.420	8.4619E-08
0.440	5.2919E-08
0.460	4.0489E-08
0.480	3.0681E-08
0.500	1.9944E-08
0.550	1.3150E-08
0.600	9.5589E-09
0.650	1.0355E-08
0.700	1.1152E-08
0.800	1.2745E-08
1.060	1.6887E-08
1.500	5.9833E-08
2.000	4.6837E-07
