Material: glass / sumita / K-BaFn3
Optical constants. SUMITA Zemax catalog 2017-02-02 (obtained from http://www.sumita-opt.co.jp)See also SUMITA optical glass data book
Specs: {"n_absolute": false, "wavelength_vacuum": false, "temperature": "20.0 °C", "thermal_dispersion": [{"type": "Schott formula", "coefficients": "7.44e-08 1.27e-08 -3.11e-10 5.72e-07 5.44e-10 0.214"}], "nd": 1.66422, "Vd": 49.2, "glass_code": 664492, "density": "3.62 g/cm3", "thermal_expansion": [{"temperature_range": "-30 70 °C", "coefficient": "7e-06 K-1"}, {"temperature_range": "20 300 °C", "coefficient": "8.5e-06 K-1"}], "dPgF": -0.0024, "climatic_resistance": 1.0, "acid_resistance": 4.0}
Dispersion formula 3, range 0.36 1.55 um, coefficients 2.7128944 -0.010619935 2 0.019653632 -2 0.00040051165 -4 1.1626539e-06 -6 1.1579589e-06 -8
wavelength (um)	k
0.330	1.8140E-05
0.340	7.1950E-06
0.350	3.0211E-06
0.360	1.3927E-06
0.370	7.0152E-07
0.380	3.8656E-07
0.390	2.2522E-07
0.400	1.4323E-07
0.420	8.8048E-08
0.440	6.7167E-08
0.460	5.1610E-08
0.480	3.8389E-08
0.500	2.7950E-08
0.550	2.1939E-08
0.600	1.9137E-08
0.650	1.0355E-08
0.700	1.1152E-08
0.800	1.2745E-08
1.060	1.6887E-08
1.500	3.5864E-08
2.000	4.0295E-07
