Material: glass / sumita / K-BOC30
Optical constants. SUMITA Zemax catalog 2017-02-02 (obtained from http://www.sumita-opt.co.jp)See also SUMITA optical glass data book
Specs: {"n_absolute": false, "wavelength_vacuum": false, "temperature": "20.0 °C", "thermal_dispersion": [{"type": "Schott formula", "coefficients": "-1.71e-06 1.58e-08 -2.57e-10 1.04e-06 1.1e-09 0.282"}], "nd": 2.0068, "Vd": 26.2, "density": "4.8 g/cm3", "thermal_expansion": [{"temperature_range": "-30 70 °C", "coefficient": "7e-06 K-1"}, {"temperature_range": "20 300 °C", "coefficient": "8.5e-06 K-1"}], "dPgF": 0.0099, "climatic_resistance": 1.0, "acid_resistance": 1.0}
Dispersion formula 3, range 0.4 1.55 um, coefficients 3.8354813 -0.015056123 2 0.060329996 -2 0.002453809 -4 1.7392287e-05 -6 1.7174222e-05 -8
wavelength (um)	k
0.360	2.5531E-05
0.370	1.4213E-05
0.380	8.0488E-06
0.390	4.9955E-06
0.400	3.3247E-06
0.420	1.6933E-06
0.440	9.7318E-07
0.460	6.5159E-07
0.480	4.5362E-07
0.500	3.2219E-07
0.550	1.3190E-07
0.600	9.5781E-08
0.650	8.6425E-08
0.700	7.4421E-08
0.800	4.2484E-08
1.060	5.6291E-08
1.500	7.9657E-08
2.000	2.1263E-07
