Material: glass / sumita / K-CaFK95
Optical constants. SUMITA Zemax catalog 2017-02-02 (obtained from http://www.sumita-opt.co.jp)See also SUMITA optical glass data book
Specs: {"n_absolute": false, "wavelength_vacuum": false, "temperature": "20.0 °C", "thermal_dispersion": [{"type": "Schott formula", "coefficients": "-2.06e-05 -5.62e-09 -2.69e-11 3.17e-07 3.49e-10 0.174"}], "nd": 1.43425, "Vd": 95.0, "glass_code": 434950, "density": "3.54 g/cm3", "thermal_expansion": [{"temperature_range": "-30 70 °C", "coefficient": "1.29e-05 K-1"}, {"temperature_range": "20 300 °C", "coefficient": "1.67e-05 K-1"}], "dPgF": 0.0483, "climatic_resistance": 1.0, "acid_resistance": 4.0}
Dispersion formula 3, range 0.36 1.55 um, coefficients 2.0408226 -0.0045471403 2 0.0058631038 -2 0.00012966471 -4 -1.1902639e-05 -6 6.9279944e-07 -8
wavelength (um)	k
0.270	8.3005E-06
0.280	6.2688E-06
0.290	4.2582E-06
0.300	2.6540E-06
0.310	1.5155E-06
0.320	7.8749E-07
0.330	3.9302E-07
0.340	1.8764E-07
0.350	8.4835E-08
0.360	4.6207E-08
0.370	1.7719E-08
0.380	9.0855E-09
0.390	6.2133E-09
0.400	6.3726E-09
0.420	6.6912E-09
0.440	7.0098E-09
0.460	7.3285E-09
0.480	7.6471E-09
0.500	7.9657E-09
0.550	8.7623E-09
0.600	9.5589E-09
0.650	1.0355E-08
0.700	1.1152E-08
0.800	1.2745E-08
1.060	1.6887E-08
1.500	3.5864E-08
2.000	1.4389E-07
