Material: glass / sumita / K-CD45(M)
Optical constants. SUMITA Zemax catalog 2017-02-02 (obtained from http://www.sumita-opt.co.jp)See also SUMITA optical glass data book
Specs: {"n_absolute": false, "wavelength_vacuum": false, "temperature": "20.0 °C", "thermal_dispersion": [{"type": "Schott formula", "coefficients": "-4.77e-06 1.49e-08 -1.38e-10 7.8e-07 7.44e-10 0.271"}], "nd": 1.68673, "Vd": 34.1, "glass_code": 693337, "density": "3.13 g/cm3", "thermal_expansion": [{"temperature_range": "-30 70 °C", "coefficient": "9.1e-06 K-1"}, {"temperature_range": "20 300 °C", "coefficient": "1.21e-05 K-1"}], "dPgF": 0.0064, "climatic_resistance": 1.0, "acid_resistance": 1.0}
Dispersion formula 3, range 0.4 1.55 um, coefficients 2.7618542 -0.011387611 2 0.02681912 -2 0.0011728044 -4 -3.975188e-05 -6 8.2439775e-06 -8
wavelength (um)	k
0.340	1.8690E-05
0.350	9.5010E-06
0.360	3.7510E-06
0.370	1.7549E-06
0.380	9.6412E-07
0.390	6.0079E-07
0.400	4.0329E-07
0.420	2.0680E-07
0.440	1.3929E-07
0.460	1.0773E-07
0.480	7.7169E-08
0.500	5.6098E-08
0.550	2.6340E-08
0.600	2.8734E-08
0.650	3.1129E-08
0.700	3.3523E-08
0.800	2.5516E-08
1.060	1.6887E-08
1.500	2.3897E-08
2.000	5.0119E-07
