Material: glass / sumita / K-CSK120(M)
Optical constants. SUMITA Zemax catalog 2017-02-02 (obtained from http://www.sumita-opt.co.jp)See also SUMITA optical glass data book
Specs: {"n_absolute": false, "wavelength_vacuum": false, "temperature": "20.0 °C", "thermal_dispersion": [{"type": "Schott formula", "coefficients": "1.46e-06 1.54e-08 -2.77e-11 5.04e-07 3.24e-10 0.172"}], "nd": 1.58445, "Vd": 59.2, "glass_code": 587596, "density": "3.0 g/cm3", "thermal_expansion": [{"temperature_range": "-30 70 °C", "coefficient": "7.2e-06 K-1"}, {"temperature_range": "20 300 °C", "coefficient": "9.1e-06 K-1"}], "dPgF": -0.0038, "climatic_resistance": 2.0, "acid_resistance": 4.0}
Dispersion formula 3, range 0.36 1.55 um, coefficients 2.4722418 -0.01073376 2 0.013736108 -2 0.00027440551 -4 -9.8995396e-06 -6 8.2295122e-07 -8
wavelength (um)	k
0.310	6.2618E-06
0.320	2.4240E-06
0.330	1.0166E-06
0.340	4.6209E-07
0.350	2.2317E-07
0.360	1.0801E-07
0.370	8.3618E-08
0.380	4.8774E-08
0.390	3.1191E-08
0.400	6.3726E-09
0.420	6.6912E-09
0.440	7.0098E-09
0.460	7.3285E-09
0.480	7.6471E-09
0.500	7.9657E-09
0.550	8.7623E-09
0.600	9.5589E-09
0.650	1.0355E-08
0.700	1.1152E-08
0.800	1.2745E-08
1.060	5.0764E-08
1.500	1.4411E-07
2.000	5.6702E-07
