Material: glass / sumita / K-FK5
Optical constants. SUMITA Zemax catalog 2017-02-02 (obtained from http://www.sumita-opt.co.jp)See also SUMITA optical glass data book
Specs: {"n_absolute": false, "wavelength_vacuum": false, "temperature": "20.0 °C", "thermal_dispersion": [{"type": "Schott formula", "coefficients": "-7.46e-06 1.15e-08 -2.45e-10 3.01e-07 2.4e-09 0.169"}], "nd": 1.48749, "Vd": 70.4, "glass_code": 487704, "density": "2.45 g/cm3", "thermal_expansion": [{"temperature_range": "-30 70 °C", "coefficient": "8.8e-06 K-1"}, {"temperature_range": "20 300 °C", "coefficient": "9.8e-06 K-1"}], "dPgF": 0.0032, "climatic_resistance": 1.0, "acid_resistance": 5.0}
Dispersion formula 3, range 0.36 1.55 um, coefficients 2.189197 -0.0097642231 2 0.0086917382 -2 0.00023646623 -4 -1.7699987e-05 -6 9.6989631e-07 -8
wavelength (um)	k
0.270	2.4215E-06
0.280	1.0472E-06
0.290	4.2168E-07
0.300	1.7582E-07
0.310	8.0232E-08
0.320	5.9253E-08
0.330	4.7700E-08
0.340	4.0892E-08
0.350	3.3625E-08
0.360	2.8792E-08
0.370	2.9592E-08
0.380	3.0392E-08
0.390	3.1191E-08
0.400	3.1991E-08
0.420	3.0216E-08
0.440	3.1655E-08
0.460	3.3094E-08
0.480	3.4533E-08
0.500	3.5972E-08
0.550	2.6340E-08
0.600	2.3933E-08
0.650	2.5928E-08
0.700	1.6736E-08
0.800	1.2745E-08
1.060	1.6887E-08
1.500	2.6554E-07
2.000	5.1762E-07
