Material: glass / sumita / K-GFK70
Optical constants. SUMITA Zemax catalog 2017-02-02 (obtained from http://www.sumita-opt.co.jp)See also SUMITA optical glass data book
Specs: {"n_absolute": false, "wavelength_vacuum": false, "temperature": "20.0 °C", "thermal_dispersion": [{"type": "Schott formula", "coefficients": "-2.47e-05 -1.68e-09 -2.49e-11 3.77e-07 3.45e-10 0.178"}], "nd": 1.56907, "Vd": 71.3, "glass_code": 569713, "density": "4.46 g/cm3", "thermal_expansion": [{"temperature_range": "-30 70 °C", "coefficient": "1.32e-05 K-1"}, {"temperature_range": "20 300 °C", "coefficient": "1.56e-05 K-1"}], "dPgF": 0.0207, "climatic_resistance": 1.0, "acid_resistance": 1.0}
Dispersion formula 3, range 0.36 1.55 um, coefficients 2.4293935 -0.0057591097 2 0.011512013 -2 0.0001324924 -4 7.3250033e-06 -6 -5.7195445e-07 -8
wavelength (um)	k
0.280	7.8887E-06
0.290	5.3138E-06
0.300	3.5611E-06
0.310	2.5341E-06
0.320	1.1969E-06
0.330	6.4575E-07
0.340	3.3973E-07
0.350	1.7234E-07
0.360	9.3172E-08
0.370	5.6481E-08
0.380	3.6507E-08
0.390	3.1191E-08
0.400	2.5567E-08
0.420	2.6846E-08
0.440	2.8124E-08
0.460	2.9402E-08
0.480	3.0681E-08
0.500	2.3945E-08
0.550	1.3150E-08
0.600	1.4345E-08
0.650	1.0355E-08
0.700	1.1152E-08
0.800	1.2745E-08
1.060	1.6887E-08
1.500	2.3897E-08
2.000	3.1863E-08
