Material: glass / sumita / K-LaKn14
Optical constants. SUMITA Zemax catalog 2017-02-02 (obtained from http://www.sumita-opt.co.jp)See also SUMITA optical glass data book
Specs: {"n_absolute": false, "wavelength_vacuum": false, "temperature": "20.0 °C", "thermal_dispersion": [{"type": "Schott formula", "coefficients": "1.61e-06 1.71e-08 -9.82e-11 5.38e-07 2.35e-11 0.138"}], "nd": 1.741, "Vd": 52.7, "glass_code": 741527, "density": "4.31 g/cm3", "thermal_expansion": [{"temperature_range": "-30 70 °C", "coefficient": "5.8e-06 K-1"}, {"temperature_range": "20 300 °C", "coefficient": "7.4e-06 K-1"}], "dPgF": -0.0095, "acid_resistance": 4.0}
Dispersion formula 3, range 0.36 1.55 um, coefficients 2.9713549 -0.015047149 2 0.020748381 -2 0.00068239287 -4 -4.5897244e-05 -6 3.0151479e-06 -8
wavelength (um)	k
0.280	7.2286E-06
0.290	5.4080E-06
0.300	3.8542E-06
0.310	3.6471E-06
0.320	1.9011E-06
0.330	1.2809E-06
0.340	8.4409E-07
0.350	5.4256E-07
0.360	3.4029E-07
0.370	2.1051E-07
0.380	1.3607E-07
0.390	9.1333E-08
0.400	6.4307E-08
0.420	4.0350E-08
0.440	2.8124E-08
0.460	2.2030E-08
0.480	1.5310E-08
0.500	1.1955E-08
0.550	8.7623E-09
0.600	9.5589E-09
0.650	1.0355E-08
0.700	1.1152E-08
0.800	1.2745E-08
1.060	1.6887E-08
1.500	2.3897E-08
2.000	5.1762E-07
