Material: glass / sumita / K-LaKn2
Optical constants. SUMITA Zemax catalog 2017-02-02 (obtained from http://www.sumita-opt.co.jp)See also SUMITA optical glass data book
Specs: {"n_absolute": false, "wavelength_vacuum": false, "temperature": "20.0 °C", "thermal_dispersion": [{"type": "Schott formula", "coefficients": "-2.24e-06 1.48e-08 -2.56e-10 3.66e-07 4.69e-10 0.182"}], "nd": 1.6405, "Vd": 60.1, "glass_code": 641601, "density": "3.66 g/cm3", "thermal_expansion": [{"temperature_range": "-30 70 °C", "coefficient": "5.9e-06 K-1"}, {"temperature_range": "20 300 °C", "coefficient": "8e-06 K-1"}], "dPgF": -0.0029, "climatic_resistance": 1.0, "acid_resistance": 5.0}
Dispersion formula 3, range 0.36 1.55 um, coefficients 2.6498456 -0.013078949 2 0.014887079 -2 0.0003621869 -4 -1.1506273e-05 -6 6.1300945e-07 -8
wavelength (um)	k
0.290	9.0280E-06
0.300	5.8571E-06
0.310	3.8617E-06
0.320	2.5250E-06
0.330	1.5320E-06
0.340	9.3429E-07
0.350	5.5613E-07
0.360	3.4352E-07
0.370	1.9474E-07
0.380	1.3291E-07
0.390	9.1333E-08
0.400	6.4307E-08
0.420	5.0514E-08
0.440	4.2271E-08
0.460	3.6790E-08
0.480	3.8389E-08
0.500	3.1959E-08
0.550	2.6340E-08
0.600	2.3933E-08
0.650	1.5541E-08
0.700	1.6736E-08
0.800	1.2745E-08
1.060	1.6887E-08
1.500	2.3897E-08
2.000	4.6837E-07
