Material: glass / sumita / K-LaK6
Optical constants. SUMITA Zemax catalog 2017-02-02 (obtained from http://www.sumita-opt.co.jp)See also SUMITA optical glass data book
Specs: {"n_absolute": false, "wavelength_vacuum": false, "temperature": "20.0 °C", "thermal_dispersion": [{"type": "Schott formula", "coefficients": "-2.11e-06 1.88e-08 -1.93e-10 4.01e-07 3.43e-10 0.195"}], "nd": 1.6425, "Vd": 58.1, "glass_code": 643581, "density": "3.76 g/cm3", "thermal_expansion": [{"temperature_range": "-30 70 °C", "coefficient": "6.2e-06 K-1"}, {"temperature_range": "20 300 °C", "coefficient": "7.9e-06 K-1"}], "dPgF": -0.0014, "acid_resistance": 4.0}
Dispersion formula 3, range 0.36 1.55 um, coefficients 2.6532657 -0.011570116 2 0.015955637 -2 0.00023811283 -4 1.7165459e-05 -6 -1.4129709e-06 -8
wavelength (um)	k
0.300	5.8571E-06
0.310	3.0622E-06
0.320	1.7147E-06
0.330	9.5925E-07
0.340	5.6346E-07
0.350	3.3398E-07
0.360	2.0175E-07
0.370	1.2941E-07
0.380	8.8991E-08
0.390	6.2700E-08
0.400	5.7818E-08
0.420	4.3734E-08
0.440	4.5817E-08
0.460	3.6790E-08
0.480	2.2987E-08
0.500	2.3945E-08
0.550	2.6340E-08
0.600	1.4345E-08
0.650	1.5541E-08
0.700	1.1152E-08
0.800	1.2745E-08
1.060	1.6887E-08
1.500	3.5864E-08
2.000	4.8477E-07
