Material: glass / sumita / K-LaK10
Optical constants. SUMITA Zemax catalog 2017-02-02 (obtained from http://www.sumita-opt.co.jp)See also SUMITA optical glass data book
Specs: {"n_absolute": false, "wavelength_vacuum": false, "temperature": "20.0 °C", "thermal_dispersion": [{"type": "Schott formula", "coefficients": "-2.63e-06 2.02e-08 -6.98e-11 5.94e-07 9.57e-10 0.184"}], "nd": 1.72, "Vd": 50.3, "glass_code": 720503, "density": "4.08 g/cm3", "thermal_expansion": [{"temperature_range": "-30 70 °C", "coefficient": "7.2e-06 K-1"}, {"temperature_range": "20 300 °C", "coefficient": "8.6e-06 K-1"}], "dPgF": -0.0066, "climatic_resistance": 1.0, "acid_resistance": 4.0}
Dispersion formula 3, range 0.36 1.55 um, coefficients 2.8960747 -0.011713123 2 0.021599254 -2 0.00043811038 -4 5.752903e-06 -6 -1.7364157e-07 -8
wavelength (um)	k
0.310	1.3070E-05
0.320	6.4637E-06
0.330	2.6395E-06
0.340	1.8862E-06
0.350	1.0619E-06
0.360	6.2854E-07
0.370	3.5971E-07
0.380	2.1945E-07
0.390	1.4940E-07
0.400	1.1671E-07
0.420	7.4350E-08
0.440	6.7167E-08
0.460	6.2765E-08
0.480	5.7730E-08
0.500	4.8035E-08
0.550	3.9569E-08
0.600	3.8351E-08
0.650	2.5928E-08
0.700	1.6736E-08
0.800	1.2745E-08
1.060	1.6887E-08
1.500	9.5877E-08
2.000	5.8353E-07
