Material: glass / sumita / K-LaK9
Optical constants. SUMITA Zemax catalog 2017-02-02 (obtained from http://www.sumita-opt.co.jp)See also SUMITA optical glass data book
Specs: {"n_absolute": false, "wavelength_vacuum": false, "temperature": "20.0 °C", "thermal_dispersion": [{"type": "Schott formula", "coefficients": "-3.41e-06 2.03e-08 -1.26e-10 4.75e-07 9.33e-11 0.17"}], "nd": 1.691, "Vd": 54.8, "glass_code": 691548, "density": "4.06 g/cm3", "thermal_expansion": [{"temperature_range": "20 300 °C", "coefficient": "8.6e-06 K-1"}], "dPgF": -0.004, "climatic_resistance": 1.0, "acid_resistance": 4.0}
Dispersion formula 3, range 0.36 1.55 um, coefficients 2.8065086 -0.012084694 2 0.018509723 -2 0.00045689652 -4 -1.5275984e-05 -6 1.0018509e-06 -8
wavelength (um)	k
0.310	7.3413E-06
0.320	3.6448E-06
0.330	2.0795E-06
0.340	1.2372E-06
0.350	7.1713E-07
0.360	4.4878E-07
0.370	2.5834E-07
0.380	1.6787E-07
0.390	1.2023E-07
0.400	9.3675E-08
0.420	7.7770E-08
0.440	6.0036E-08
0.460	5.9043E-08
0.480	5.7730E-08
0.500	4.8035E-08
0.550	4.3988E-08
0.600	3.8351E-08
0.650	4.1547E-08
0.700	2.7922E-08
0.800	1.9127E-08
1.060	1.6887E-08
1.500	9.5877E-08
2.000	6.1658E-07
