Material: glass / sumita / K-LaFK60
Optical constants. SUMITA Zemax catalog 2017-02-02 (obtained from http://www.sumita-opt.co.jp)See also SUMITA optical glass data book
Specs: {"n_absolute": false, "wavelength_vacuum": false, "temperature": "20.0 °C", "thermal_dispersion": [{"type": "Schott formula", "coefficients": "-9.6e-06 1.03e-08 -7.48e-11 3.87e-07 1.56e-10 0.188"}], "nd": 1.63246, "Vd": 63.8, "glass_code": 632638, "density": "4.29 g/cm3", "thermal_expansion": [{"temperature_range": "-30 70 °C", "coefficient": "9.3e-06 K-1"}, {"temperature_range": "20 300 °C", "coefficient": "1.14e-05 K-1"}], "dPgF": 0.0041, "climatic_resistance": 1.0, "acid_resistance": 5.0}
Dispersion formula 3, range 0.36 1.55 um, coefficients 2.6248172 -0.010251149 2 0.0143793 -2 0.00024017461 -4 -1.041901e-06 -6 1.0237991e-07 -8
wavelength (um)	k
0.270	6.1177E-06
0.280	5.6842E-06
0.290	4.1028E-06
0.300	3.0647E-06
0.310	2.4863E-06
0.320	1.3827E-06
0.330	9.1424E-07
0.340	6.7572E-07
0.350	5.4594E-07
0.360	4.7233E-07
0.370	3.7639E-07
0.380	2.7855E-07
0.390	1.8214E-07
0.400	1.1340E-07
0.420	6.0709E-08
0.440	3.1655E-08
0.460	1.8349E-08
0.480	1.1476E-08
0.500	7.9657E-09
0.550	8.7623E-09
0.600	9.5589E-09
0.650	1.0355E-08
0.700	1.1152E-08
0.800	1.2745E-08
1.060	1.6887E-08
1.500	5.9833E-08
2.000	3.7033E-07
