Material: glass / sumita / K-LaSFn21
Optical constants. SUMITA Zemax catalog 2017-02-02 (obtained from http://www.sumita-opt.co.jp)See also SUMITA optical glass data book
Specs: {"n_absolute": false, "wavelength_vacuum": false, "temperature": "20.0 °C", "thermal_dispersion": [{"type": "Schott formula", "coefficients": "3.35e-06 1.38e-08 -2.07e-11 8.23e-07 1.31e-09 0.268"}], "nd": 1.85, "Vd": 32.4, "glass_code": 850324, "density": "3.99 g/cm3", "thermal_expansion": [{"temperature_range": "-30 70 °C", "coefficient": "6e-06 K-1"}, {"temperature_range": "20 300 °C", "coefficient": "7.6e-06 K-1"}], "dPgF": 0.0085, "climatic_resistance": 1.0, "acid_resistance": 3.0}
Dispersion formula 3, range 0.4 1.55 um, coefficients 3.3040338 -0.016019748 2 0.037645989 -2 0.0021532464 -4 -0.00020498123 -6 2.7623217e-05 -8
wavelength (um)	k
0.360	1.3193E-05
0.370	6.4990E-06
0.380	3.5612E-06
0.390	2.1388E-06
0.400	1.3958E-06
0.420	7.2498E-07
0.440	4.7556E-07
0.460	3.5732E-07
0.480	2.7309E-07
0.500	2.0409E-07
0.550	1.1081E-07
0.600	6.7317E-08
0.650	4.6764E-08
0.700	3.3523E-08
0.800	3.8312E-08
1.060	3.3809E-08
1.500	5.9833E-08
2.000	4.8477E-07
