Material: glass / sumita / K-LaSFn4
Optical constants. SUMITA Zemax catalog 2017-02-02 (obtained from http://www.sumita-opt.co.jp)See also SUMITA optical glass data book
Specs: {"n_absolute": false, "wavelength_vacuum": false, "temperature": "20.0 °C", "thermal_dispersion": [{"type": "Schott formula", "coefficients": "-6.24e-07 1.69e-08 -1.42e-10 6.93e-07 1.19e-09 0.208"}], "nd": 1.785, "Vd": 43.7, "glass_code": 785437, "density": "4.12 g/cm3", "thermal_expansion": [{"temperature_range": "-30 70 °C", "coefficient": "6.9e-06 K-1"}, {"temperature_range": "20 300 °C", "coefficient": "8.3e-06 K-1"}], "dPgF": -0.0078, "climatic_resistance": 1.0, "acid_resistance": 3.0}
Dispersion formula 3, range 0.36 1.55 um, coefficients 3.1049984 -0.013342479 2 0.027506526 -2 0.00075451621 -4 -1.6565687e-05 -6 2.780481e-06 -8
wavelength (um)	k
0.310	1.5331E-05
0.320	7.1222E-06
0.330	3.3335E-06
0.340	1.7331E-06
0.350	9.8944E-07
0.360	5.9661E-07
0.370	3.7304E-07
0.380	2.4230E-07
0.390	1.6246E-07
0.400	1.2001E-07
0.420	8.4619E-08
0.440	6.7167E-08
0.460	5.1610E-08
0.480	3.8389E-08
0.500	2.3945E-08
0.550	1.3150E-08
0.600	1.4345E-08
0.650	1.5541E-08
0.700	1.1152E-08
0.800	1.2745E-08
1.060	1.6887E-08
1.500	2.3897E-08
2.000	3.2154E-07
