Material: glass / sumita / K-LaSFn2
Optical constants. SUMITA Zemax catalog 2017-02-02 (obtained from http://www.sumita-opt.co.jp)See also SUMITA optical glass data book
Specs: {"n_absolute": false, "wavelength_vacuum": false, "temperature": "20.0 °C", "thermal_dispersion": [{"type": "Schott formula", "coefficients": "5.26e-06 1.83e-08 -3.28e-10 7.62e-07 8.92e-10 0.222"}], "nd": 1.805, "Vd": 39.6, "glass_code": 805396, "density": "4.13 g/cm3", "thermal_expansion": [{"temperature_range": "-30 70 °C", "coefficient": "5.6e-06 K-1"}, {"temperature_range": "20 300 °C", "coefficient": "7e-06 K-1"}], "dPgF": -0.0066, "climatic_resistance": 1.0, "acid_resistance": 3.0}
Dispersion formula 3, range 0.36 1.55 um, coefficients 3.1666472 -0.014823032 2 0.030366123 -2 0.0010942894 -4 -4.2108569e-05 -6 5.7186779e-06 -8
wavelength (um)	k
0.320	1.7590E-05
0.330	8.2027E-06
0.340	3.6343E-06
0.350	1.8374E-06
0.360	1.0218E-06
0.370	6.1681E-07
0.380	3.7970E-07
0.390	2.4531E-07
0.400	1.6662E-07
0.420	1.0180E-07
0.440	6.3599E-08
0.460	4.4192E-08
0.480	2.6832E-08
0.500	1.1955E-08
0.550	8.7623E-09
0.600	9.5589E-09
0.650	1.0355E-08
0.700	1.1152E-08
0.800	1.2745E-08
1.060	1.6887E-08
1.500	2.3897E-08
2.000	3.8663E-07
