Material: glass / sumita / K-LaSFn10
Optical constants. SUMITA Zemax catalog 2017-02-02 (obtained from http://www.sumita-opt.co.jp)See also SUMITA optical glass data book
Specs: {"n_absolute": false, "wavelength_vacuum": false, "temperature": "20.0 °C", "thermal_dispersion": [{"type": "Schott formula", "coefficients": "3.02e-06 1.34e-08 -1.66e-10 6.41e-07 6.88e-10 0.194"}], "nd": 1.8155, "Vd": 44.4, "glass_code": 816444, "density": "4.8 g/cm3", "thermal_expansion": [{"temperature_range": "-30 70 °C", "coefficient": "5.6e-06 K-1"}, {"temperature_range": "20 300 °C", "coefficient": "7.2e-06 K-1"}], "dPgF": -0.0105, "climatic_resistance": 1.0, "acid_resistance": 2.0}
Dispersion formula 3, range 0.36 1.55 um, coefficients 3.2128137 -0.015587464 2 0.028249299 -2 0.00086439607 -4 -2.9175496e-05 -6 2.9912535e-06 -8
wavelength (um)	k
0.340	6.8677E-06
0.350	2.7617E-06
0.360	1.3055E-06
0.370	6.6070E-07
0.380	4.0034E-07
0.390	2.5204E-07
0.400	1.9696E-07
0.420	1.2254E-07
0.440	1.0304E-07
0.460	9.2677E-08
0.480	7.3273E-08
0.500	6.0135E-08
0.550	5.2839E-08
0.600	4.3166E-08
0.650	2.5928E-08
0.700	1.6736E-08
0.800	1.2745E-08
1.060	2.4824E-07
1.500	3.5128E-07
2.000	1.1721E-06
