Material: glass / sumita / K-LaFK58(M)
Optical constants. SUMITA Zemax catalog 2017-02-02 (obtained from http://www.sumita-opt.co.jp)See also SUMITA optical glass data book
Specs: {"n_absolute": false, "wavelength_vacuum": false, "temperature": "20.0 °C", "thermal_dispersion": [{"type": "Schott formula", "coefficients": "-4.73e-06 9.33e-09 -1.14e-10 4.36e-07 4.83e-10 0.169"}], "nd": 1.69097, "Vd": 58.4, "glass_code": 696590, "density": "4.56 g/cm3", "thermal_expansion": [{"temperature_range": "-30 70 °C", "coefficient": "6.9e-06 K-1"}, {"temperature_range": "20 300 °C", "coefficient": "9.3e-06 K-1"}], "dPgF": -0.0029, "climatic_resistance": 1.0, "acid_resistance": 4.0}
Dispersion formula 3, range 0.36 1.55 um, coefficients 2.8101512 -0.012726602 2 0.017535146 -2 0.00035913422 -4 -8.8851874e-06 -6 6.1852602e-07 -8
wavelength (um)	k
0.270	5.3737E-06
0.280	4.6875E-06
0.290	3.6912E-06
0.300	2.9884E-06
0.310	3.0708E-06
0.320	1.4314E-06
0.330	9.2916E-07
0.340	5.8017E-07
0.350	3.7510E-07
0.360	2.0482E-07
0.370	1.1101E-07
0.380	8.5878E-08
0.390	5.3213E-08
0.400	2.2360E-08
0.420	1.3396E-08
0.440	1.4034E-08
0.460	1.4672E-08
0.480	1.5310E-08
0.500	1.5947E-08
0.550	1.7542E-08
0.600	1.9137E-08
0.650	2.0732E-08
0.700	2.2326E-08
0.800	2.5516E-08
1.060	3.3809E-08
1.500	4.7842E-08
2.000	3.3778E-07
