Material: glass / sumita / K-LaKn4
Optical constants. SUMITA Zemax catalog 2017-02-02 (obtained from http://www.sumita-opt.co.jp)See also SUMITA optical glass data book
Specs: {"n_absolute": false, "wavelength_vacuum": false, "temperature": "20.0 °C", "thermal_dispersion": [{"type": "Schott formula", "coefficients": "-1.88e-06 1.19e-08 -1.1e-10 3.48e-07 6.14e-10 0.223"}], "nd": 1.671, "Vd": 57.2, "glass_code": 671572, "density": "3.88 g/cm3", "thermal_expansion": [{"temperature_range": "20 300 °C", "coefficient": "8.5e-06 K-1"}], "dPgF": -0.0038, "climatic_resistance": 2.0, "acid_resistance": 5.0}
Dispersion formula 3, range 0.36 1.55 um, coefficients 2.744955 -0.013026744 2 0.016661518 -2 0.00048278001 -4 -2.5815825e-05 -6 1.5241247e-06 -8
wavelength (um)	k
0.310	6.0523E-06
0.320	3.2967E-06
0.330	1.8573E-06
0.340	1.1038E-06
0.350	6.4949E-07
0.360	4.0225E-07
0.370	2.3911E-07
0.380	1.5511E-07
0.390	1.1379E-07
0.400	9.3675E-08
0.420	6.4114E-08
0.440	6.3599E-08
0.460	5.5324E-08
0.480	4.6114E-08
0.500	3.1959E-08
0.550	2.6340E-08
0.600	2.3933E-08
0.650	2.5928E-08
0.700	1.6736E-08
0.800	1.2745E-08
1.060	1.6887E-08
1.500	9.5877E-08
2.000	5.8353E-07
