Material: glass / sumita / K-LaSFn3
Optical constants. SUMITA Zemax catalog 2017-02-02 (obtained from http://www.sumita-opt.co.jp)See also SUMITA optical glass data book
Specs: {"n_absolute": false, "wavelength_vacuum": false, "temperature": "20.0 °C", "thermal_dispersion": [{"type": "Schott formula", "coefficients": "3.38e-07 3.13e-08 -2.27e-11 6.92e-07 5.55e-10 0.218"}], "nd": 1.7995, "Vd": 42.3, "glass_code": 800423, "density": "4.39 g/cm3", "thermal_expansion": [{"temperature_range": "-30 70 °C", "coefficient": "6.9e-06 K-1"}, {"temperature_range": "20 300 °C", "coefficient": "8e-06 K-1"}], "dPgF": -0.006, "climatic_resistance": 1.0, "acid_resistance": 3.0}
Dispersion formula 3, range 0.36 1.55 um, coefficients 3.1507226 -0.012460963 2 0.029910697 -2 0.00050733106 -4 3.6278868e-05 -6 -2.5019766e-08 -8
wavelength (um)	k
0.310	1.2240E-05
0.320	1.0093E-05
0.330	4.6379E-06
0.340	2.2835E-06
0.350	1.2561E-06
0.360	7.2283E-07
0.370	4.5093E-07
0.380	2.7524E-07
0.390	1.8873E-07
0.400	1.4323E-07
0.420	8.8048E-08
0.440	8.1473E-08
0.460	6.6490E-08
0.480	4.6114E-08
0.500	3.5972E-08
0.550	2.6340E-08
0.600	2.3933E-08
0.650	2.0732E-08
0.700	1.6736E-08
0.800	3.8312E-08
1.060	1.6887E-08
1.500	2.3897E-08
2.000	3.0530E-07
