Material: glass / sumita / K-LaFK65(M)
Optical constants. SUMITA Zemax catalog 2017-02-02 (obtained from http://www.sumita-opt.co.jp)See also SUMITA optical glass data book
Specs: {"n_absolute": false, "wavelength_vacuum": false, "temperature": "20.0 °C", "thermal_dispersion": [{"type": "Schott formula", "coefficients": "-7.58e-06 9.42e-09 -3.47e-11 3.97e-07 4.24e-10 0.182"}], "nd": 1.65224, "Vd": 62.2, "glass_code": 657623, "density": "4.36 g/cm3", "thermal_expansion": [{"temperature_range": "-30 70 °C", "coefficient": "8.1e-06 K-1"}, {"temperature_range": "20 300 °C", "coefficient": "1.03e-05 K-1"}], "dPgF": 0.0025, "climatic_resistance": 1.0, "acid_resistance": 5.0}
Dispersion formula 3, range 0.36 1.55 um, coefficients 2.6875081 -0.011599607 2 0.015290297 -2 0.00024225647 -4 4.1061121e-06 -6 -2.0740076e-07 -8
wavelength (um)	k
0.270	5.4995E-06
0.280	4.6179E-06
0.290	3.6525E-06
0.300	2.9068E-06
0.310	2.6671E-06
0.320	1.3297E-06
0.330	8.3518E-07
0.340	5.4845E-07
0.350	3.5003E-07
0.360	2.3198E-07
0.370	1.4833E-07
0.380	8.0963E-08
0.390	7.2670E-08
0.400	5.3185E-08
0.420	3.3473E-08
0.440	2.3366E-08
0.460	2.4428E-08
0.480	2.5490E-08
0.500	2.6552E-08
0.550	2.9208E-08
0.600	3.1863E-08
0.650	3.4518E-08
0.700	3.7173E-08
0.800	4.2484E-08
1.060	5.6291E-08
1.500	7.9657E-08
2.000	3.7267E-07
