Material: glass / sumita / K-LaF2
Optical constants. SUMITA Zemax catalog 2017-02-02 (obtained from http://www.sumita-opt.co.jp)See also SUMITA optical glass data book
Specs: {"n_absolute": false, "wavelength_vacuum": false, "temperature": "20.0 °C", "thermal_dispersion": [{"type": "Schott formula", "coefficients": "-1.89e-06 1.65e-08 -4.35e-11 6.29e-07 6.76e-10 0.223"}], "nd": 1.744, "Vd": 44.9, "glass_code": 744449, "density": "4.01 g/cm3", "thermal_expansion": [{"temperature_range": "-30 70 °C", "coefficient": "7.3e-06 K-1"}, {"temperature_range": "20 300 °C", "coefficient": "8.6e-06 K-1"}], "dPgF": -0.0038, "climatic_resistance": 1.0, "acid_resistance": 4.0}
Dispersion formula 3, range 0.36 1.55 um, coefficients 2.969235 -0.01236657 2 0.024178838 -2 0.00087063153 -4 -4.4196612e-05 -6 4.4742987e-06 -8
wavelength (um)	k
0.340	9.7725E-06
0.350	3.5554E-06
0.360	1.4349E-06
0.370	6.7548E-07
0.380	3.7970E-07
0.390	2.4196E-07
0.400	1.7334E-07
0.420	1.1216E-07
0.440	9.2241E-08
0.460	8.1431E-08
0.480	6.9381E-08
0.500	6.0135E-08
0.550	4.3988E-08
0.600	3.8351E-08
0.650	3.1129E-08
0.700	1.6736E-08
0.800	1.2745E-08
1.060	1.6887E-08
1.500	2.3897E-08
2.000	4.1928E-07
