Material: glass / sumita / K-PBK40(M)
Optical constants. SUMITA Zemax catalog 2017-02-02 (obtained from http://www.sumita-opt.co.jp)See also SUMITA optical glass data book
Specs: {"n_absolute": false, "wavelength_vacuum": false, "temperature": "20.0 °C", "thermal_dispersion": [{"type": "Schott formula", "coefficients": "4.91e-06 2.06e-08 1.52e-11 4.18e-07 1.61e-10 0.165"}], "nd": 1.51497, "Vd": 63.3, "glass_code": 518635, "density": "2.39 g/cm3", "thermal_expansion": [{"temperature_range": "-30 70 °C", "coefficient": "5.4e-06 K-1"}, {"temperature_range": "20 300 °C", "coefficient": "7.3e-06 K-1"}], "dPgF": -0.0035, "climatic_resistance": 2.0, "acid_resistance": 1.0}
Dispersion formula 3, range 0.36 1.55 um, coefficients 2.2666695 -0.010697246 2 0.010455014 -2 0.00024731938 -4 -9.4216199e-06 -6 3.3360125e-07 -8
wavelength (um)	k
0.280	1.0049E-05
0.290	5.3138E-06
0.300	2.9225E-06
0.310	1.5476E-06
0.320	8.3653E-07
0.330	4.3917E-07
0.340	2.4034E-07
0.350	1.2242E-07
0.360	6.3729E-08
0.370	3.5546E-08
0.380	3.6507E-08
0.390	3.1191E-08
0.400	2.8778E-08
0.420	3.0216E-08
0.440	3.1655E-08
0.460	3.3094E-08
0.480	3.4533E-08
0.500	3.5972E-08
0.550	3.5155E-08
0.600	3.8351E-08
0.650	4.1547E-08
0.700	2.7922E-08
0.800	1.2745E-08
1.060	1.6887E-08
1.500	2.3897E-08
2.000	3.1863E-08
