Material: glass / sumita / K-PBK50
Optical constants. SUMITA Zemax catalog 2017-02-02 (obtained from http://www.sumita-opt.co.jp)See also SUMITA optical glass data book
Specs: {"n_absolute": false, "wavelength_vacuum": false, "temperature": "20.0 °C", "thermal_dispersion": [{"type": "Schott formula", "coefficients": "5.1e-08 2.09e-08 -1.11e-11 4.38e-07 5.79e-10 0.176"}], "nd": 1.5225, "Vd": 62.3, "glass_code": 523623, "density": "2.43 g/cm3", "thermal_expansion": [{"temperature_range": "-30 70 °C", "coefficient": "6.7e-06 K-1"}, {"temperature_range": "20 300 °C", "coefficient": "9.2e-06 K-1"}], "dPgF": -0.0046, "climatic_resistance": 2.0, "acid_resistance": 4.0}
Dispersion formula 3, range 0.36 1.55 um, coefficients 2.2879519 -0.010513752 2 0.010963175 -2 0.00027027054 -4 -1.7054549e-05 -6 1.0857039e-06 -8
wavelength (um)	k
0.270	1.0121E-05
0.280	9.0788E-06
0.290	5.8872E-06
0.300	3.4879E-06
0.310	1.9534E-06
0.320	1.0658E-06
0.330	5.7616E-07
0.340	3.1226E-07
0.350	1.6642E-07
0.360	8.1359E-08
0.370	5.3481E-08
0.380	3.6507E-08
0.390	2.1801E-08
0.400	2.2360E-08
0.420	2.3478E-08
0.440	2.4596E-08
0.460	1.8349E-08
0.480	1.9146E-08
0.500	1.5947E-08
0.550	1.3150E-08
0.600	9.5589E-09
0.650	1.0355E-08
0.700	1.1152E-08
0.800	1.2745E-08
1.060	1.6887E-08
1.500	5.9833E-08
2.000	5.8353E-07
