Material: glass / sumita / K-PFK85(M)
Optical constants. SUMITA Zemax catalog 2017-02-02 (obtained from http://www.sumita-opt.co.jp)See also SUMITA optical glass data book
Specs: {"n_absolute": false, "wavelength_vacuum": false, "temperature": "20.0 °C", "thermal_dispersion": [{"type": "Schott formula", "coefficients": "-2.28e-05 -1.71e-09 6.72e-11 3.39e-07 4.74e-10 0.176"}], "nd": 1.48375, "Vd": 85.0, "glass_code": 486852, "density": "3.97 g/cm3", "thermal_expansion": [{"temperature_range": "-30 70 °C", "coefficient": "1.29e-05 K-1"}, {"temperature_range": "20 300 °C", "coefficient": "1.63e-05 K-1"}], "dPgF": 0.0388, "climatic_resistance": 1.0, "acid_resistance": 1.0}
Dispersion formula 3, range 0.36 1.55 um, coefficients 2.180434 -0.0050369414 2 0.007415342 -2 0.000191031 -4 -1.3017551e-05 -6 6.1457339e-07 -8
wavelength (um)	k
0.280	8.1321E-06
0.290	5.7161E-06
0.300	3.7031E-06
0.310	2.4130E-06
0.320	1.1969E-06
0.330	6.1570E-07
0.340	3.1226E-07
0.350	1.5167E-07
0.360	7.5470E-08
0.370	6.5499E-08
0.380	3.0392E-08
0.390	2.4928E-08
0.400	1.5955E-08
0.420	1.6753E-08
0.440	1.7551E-08
0.460	1.8349E-08
0.480	1.1476E-08
0.500	7.9657E-09
0.550	8.7623E-09
0.600	9.5589E-09
0.650	1.0355E-08
0.700	1.1152E-08
0.800	1.2745E-08
1.060	1.6887E-08
1.500	2.3897E-08
2.000	3.1863E-08
