Material: glass / sumita / K-PFK80(M)
Optical constants. SUMITA Zemax catalog 2017-02-02 (obtained from http://www.sumita-opt.co.jp)See also SUMITA optical glass data book
Specs: {"n_absolute": false, "wavelength_vacuum": false, "temperature": "20.0 °C", "thermal_dispersion": [{"type": "Schott formula", "coefficients": "-1.91e-05 -2.54e-09 -5.06e-11 3.29e-07 5.19e-11 0.188"}], "nd": 1.49533, "Vd": 80.8, "glass_code": 497815, "density": "3.6 g/cm3", "thermal_expansion": [{"temperature_range": "-30 70 °C", "coefficient": "1.34e-05 K-1"}, {"temperature_range": "20 300 °C", "coefficient": "1.54e-05 K-1"}], "dPgF": 0.0276, "climatic_resistance": 1.0, "acid_resistance": 3.0}
Dispersion formula 3, range 0.36 1.55 um, coefficients 2.212796 -0.0056313014 2 0.0083136801 -2 0.00015790111 -4 -1.2884506e-05 -6 8.4786533e-07 -8
wavelength (um)	k
0.270	6.1551E-06
0.280	4.3808E-06
0.290	2.9377E-06
0.300	1.8383E-06
0.310	1.0741E-06
0.320	5.8099E-07
0.330	3.0602E-07
0.340	1.6454E-07
0.350	9.0584E-08
0.360	5.4955E-08
0.370	3.5546E-08
0.380	2.7339E-08
0.390	1.8677E-08
0.400	1.9156E-08
0.420	1.6753E-08
0.440	1.7551E-08
0.460	1.0998E-08
0.480	1.1476E-08
0.500	7.9657E-09
0.550	8.7623E-09
0.600	9.5589E-09
0.650	1.0355E-08
0.700	1.1152E-08
0.800	1.2745E-08
1.060	1.6887E-08
1.500	2.3897E-08
2.000	3.1863E-08
