Material: glass / sumita / K-PG375(M)
Optical constants. SUMITA Zemax catalog 2017-02-02 (obtained from http://www.sumita-opt.co.jp)See also SUMITA optical glass data book
Specs: {"n_absolute": false, "wavelength_vacuum": false, "temperature": "20.0 °C", "thermal_dispersion": [{"type": "Schott formula", "coefficients": "-1.51e-05 1.45e-09 -9.02e-11 5.44e-07 3.99e-10 0.176"}], "nd": 1.53922, "Vd": 62.7, "glass_code": 543629, "density": "2.9 g/cm3", "thermal_expansion": [{"temperature_range": "-30 70 °C", "coefficient": "1.29e-05 K-1"}, {"temperature_range": "20 300 °C", "coefficient": "1.6e-05 K-1"}], "dPgF": 0.0053, "climatic_resistance": 2.0, "acid_resistance": 3.0}
Dispersion formula 3, range 0.36 1.55 um, coefficients 2.3359595 -0.0077028465 2 0.011800095 -2 0.00020814746 -4 -3.5241725e-06 -6 3.1241519e-07 -8
wavelength (um)	k
0.300	8.5360E-06
0.310	5.7810E-06
0.320	3.5920E-06
0.330	2.0507E-06
0.340	1.0435E-06
0.350	5.1226E-07
0.360	2.4511E-07
0.370	1.2019E-07
0.380	6.4179E-08
0.390	3.1191E-08
0.400	3.1991E-08
0.420	3.3591E-08
0.440	3.5190E-08
0.460	2.9402E-08
0.480	2.6832E-08
0.500	1.5947E-08
0.550	1.3150E-08
0.600	1.9137E-08
0.650	2.5928E-08
0.700	2.2326E-08
0.800	1.9127E-08
1.060	2.5344E-08
1.500	1.1997E-07
2.000	2.2898E-06
