Material: glass / sumita / K-PG325(M)
Optical constants. SUMITA Zemax catalog 2017-02-02 (obtained from http://www.sumita-opt.co.jp)See also SUMITA optical glass data book
Specs: {"n_absolute": false, "wavelength_vacuum": false, "temperature": "20.0 °C", "thermal_dispersion": [{"type": "Schott formula", "coefficients": "-1.86e-05 -3.2e-09 -2.53e-11 4.98e-07 8.02e-10 0.172"}], "nd": 1.50506, "Vd": 70.4, "glass_code": 507705, "density": "3.0 g/cm3", "thermal_expansion": [{"temperature_range": "-30 70 °C", "coefficient": "1.43e-05 K-1"}, {"temperature_range": "20 300 °C", "coefficient": "1.65e-05 K-1"}], "dPgF": 0.0122, "climatic_resistance": 1.0, "acid_resistance": 5.0}
Dispersion formula 3, range 0.36 1.55 um, coefficients 2.2385136 -0.0070158219 2 0.0095692073 -2 0.00018606584 -4 -8.4285475e-06 -6 5.3174439e-07 -8
wavelength (um)	k
0.280	1.5392E-05
0.290	9.5429E-06
0.300	5.9133E-06
0.310	3.2854E-06
0.320	1.6554E-06
0.330	7.8009E-07
0.340	3.3973E-07
0.350	1.5461E-07
0.360	8.1359E-08
0.370	4.4500E-08
0.380	3.0392E-08
0.390	3.1191E-08
0.400	2.5567E-08
0.420	2.6846E-08
0.440	2.8124E-08
0.460	2.2030E-08
0.480	2.2987E-08
0.500	1.5947E-08
0.550	1.7542E-08
0.600	1.9137E-08
0.650	2.0732E-08
0.700	2.2326E-08
0.800	2.5516E-08
1.060	1.6887E-08
1.500	2.3897E-08
2.000	4.7818E-08
