Material: glass / sumita / K-PMK30(M)
Optical constants. SUMITA Zemax catalog 2017-02-02 (obtained from http://www.sumita-opt.co.jp)See also SUMITA optical glass data book
Specs: {"n_absolute": false, "wavelength_vacuum": false, "temperature": "20.0 °C", "thermal_dispersion": [{"type": "Schott formula", "coefficients": "3.49e-07 1.51e-08 -7.35e-11 3.65e-07 5.07e-10 0.174"}], "nd": 1.52002, "Vd": 70.2, "glass_code": 525704, "density": "2.6 g/cm3", "thermal_expansion": [{"temperature_range": "-30 70 °C", "coefficient": "8.3e-06 K-1"}, {"temperature_range": "20 300 °C", "coefficient": "8.7e-06 K-1"}], "dPgF": 0.0069, "climatic_resistance": 2.0, "acid_resistance": 1.0}
Dispersion formula 3, range 0.36 1.55 um, coefficients 2.2835931 -0.0098380554 2 0.010317986 -2 -3.5867157e-06 -4 2.1079335e-05 -6 -1.145809e-06 -8
wavelength (um)	k
0.280	7.6008E-06
0.290	4.7622E-06
0.300	2.5268E-06
0.310	1.3737E-06
0.320	7.3597E-07
0.330	4.2061E-07
0.340	2.4923E-07
0.350	1.3993E-07
0.360	9.9097E-08
0.370	9.5760E-08
0.380	6.7269E-08
0.390	5.9534E-08
0.400	4.8108E-08
0.420	4.0350E-08
0.440	4.5817E-08
0.460	4.7899E-08
0.480	3.8389E-08
0.500	3.5972E-08
0.550	1.3150E-08
0.600	9.5589E-09
0.650	1.0355E-08
0.700	1.1152E-08
0.800	1.2745E-08
1.060	1.6887E-08
1.500	3.0221E-07
2.000	2.6241E-06
