Material: glass / sumita / K-PSFn203
Optical constants. SUMITA Zemax catalog 2017-02-02 (obtained from http://www.sumita-opt.co.jp)See also SUMITA optical glass data book
Specs: {"n_absolute": false, "wavelength_vacuum": false, "temperature": "20.0 °C", "thermal_dispersion": [{"type": "Schott formula", "coefficients": "1.26e-05 4.23e-08 -4.24e-10 2.34e-06 8.67e-10 0.308"}], "nd": 2.017, "Vd": 20.8, "density": "6.17 g/cm3", "thermal_expansion": [{"temperature_range": "-30 70 °C", "coefficient": "8.2e-06 K-1"}, {"temperature_range": "20 300 °C", "coefficient": "9.1e-06 K-1"}], "dPgF": 0.0288, "climatic_resistance": 1.0, "acid_resistance": 5.0}
Dispersion formula 3, range 0.4 1.55 um, coefficients 3.8348467 -0.016749417 2 0.068052702 -2 0.0056319146 -4 -0.00041721893 -6 7.0964768e-05 -8
wavelength (um)	k
0.380	2.3413E-05
0.390	1.3355E-05
0.400	5.1926E-06
0.420	1.0018E-06
0.440	3.0747E-07
0.460	1.4731E-07
0.480	8.9440E-08
0.500	5.3158E-08
0.550	4.3833E-08
0.600	6.3790E-08
0.650	6.9105E-08
0.700	7.4421E-08
0.800	8.5053E-08
1.060	5.6291E-08
1.500	7.9657E-08
2.000	1.0621E-07
