Material: glass / sumita / K-PSK200(M)
Optical constants. SUMITA Zemax catalog 2017-02-02 (obtained from http://www.sumita-opt.co.jp)See also SUMITA optical glass data book
Specs: {"n_absolute": false, "wavelength_vacuum": false, "temperature": "20.0 °C", "thermal_dispersion": [{"type": "Schott formula", "coefficients": "-3.04e-06 8.75e-09 -5.81e-11 5.61e-07 7.53e-10 0.187"}], "nd": 1.61083, "Vd": 58.9, "glass_code": 613590, "density": "3.38 g/cm3", "thermal_expansion": [{"temperature_range": "-30 70 °C", "coefficient": "1e-05 K-1"}, {"temperature_range": "20 300 °C", "coefficient": "1.23e-05 K-1"}], "dPgF": 0.0029, "climatic_resistance": 1.0, "acid_resistance": 4.0}
Dispersion formula 3, range 0.36 1.55 um, coefficients 2.5524515 -0.0088629121 2 0.014923738 -2 0.00026036731 -4 -2.7057207e-06 -6 4.8084913e-07 -8
wavelength (um)	k
0.290	8.1705E-06
0.300	7.4033E-06
0.310	2.8032E-06
0.320	1.1484E-06
0.330	5.4689E-07
0.340	2.5815E-07
0.350	1.4286E-07
0.360	8.7259E-08
0.370	5.0485E-08
0.380	4.2634E-08
0.390	3.4328E-08
0.400	3.8428E-08
0.420	3.6968E-08
0.440	2.4596E-08
0.460	2.2030E-08
0.480	2.6832E-08
0.500	1.1955E-08
0.550	8.7623E-09
0.600	9.5589E-09
0.650	1.0355E-08
0.700	1.1152E-08
0.800	1.2745E-08
1.060	1.6887E-08
1.500	7.1835E-08
2.000	1.0357E-06
