Material: glass / sumita / K-PSFn173
Optical constants. SUMITA Zemax catalog 2017-02-02 (obtained from http://www.sumita-opt.co.jp)See also SUMITA optical glass data book
Specs: {"n_absolute": false, "wavelength_vacuum": false, "temperature": "20.0 °C", "thermal_dispersion": [{"type": "Schott formula", "coefficients": "1.59e-05 2.25e-08 -1.48e-10 3.28e-06 3.23e-09 0.333"}], "nd": 2.1478, "Vd": 17.3, "glass_code": 148173, "density": "7.03 g/cm3", "thermal_expansion": [{"temperature_range": "-30 70 °C", "coefficient": "7.9e-06 K-1"}, {"temperature_range": "20 300 °C", "coefficient": "9.7e-06 K-1"}], "dPgF": 0.0481, "climatic_resistance": 1.0, "acid_resistance": 4.0}
Dispersion formula 3, range 0.4 1.55 um, coefficients 4.2785429 -0.014012371 2 0.096019323 -2 0.0077567166 -4 -0.00051560398 -6 0.00012285966 -8
wavelength (um)	k
0.400	2.7626E-05
0.420	6.7826E-06
0.440	1.2167E-06
0.460	3.5909E-07
0.480	1.7951E-07
0.500	1.0653E-07
0.550	7.3129E-08
0.600	7.9777E-08
0.650	1.0376E-07
0.700	1.1174E-07
0.800	1.0637E-07
1.060	5.6291E-08
1.500	7.9657E-08
2.000	3.7267E-07
