Material: glass / sumita / K-PSK400
Optical constants. SUMITA Zemax catalog 2017-02-02 (obtained from http://www.sumita-opt.co.jp)See also SUMITA optical glass data book
Specs: {"n_absolute": false, "wavelength_vacuum": false, "temperature": "20.0 °C", "thermal_dispersion": [{"type": "Schott formula", "coefficients": "-1.29e-05 6.41e-09 -4.23e-11 4.04e-07 7.68e-10 0.173"}], "nd": 1.595, "Vd": 67.8, "glass_code": 595678, "density": "4.05 g/cm3", "thermal_expansion": [{"temperature_range": "-30 70 °C", "coefficient": "1.01e-05 K-1"}, {"temperature_range": "20 300 °C", "coefficient": "1.29e-05 K-1"}], "dPgF": 0.0129, "climatic_resistance": 1.0, "acid_resistance": 1.0}
Dispersion formula 3, range 0.36 1.55 um, coefficients 2.5082353 -0.0073346094 2 0.012618342 -2 0.00023225231 -4 -9.8397157e-06 -6 6.9870981e-07 -8
wavelength (um)	k
0.270	2.3235E-05
0.280	1.9439E-05
0.290	1.8189E-05
0.300	1.3962E-05
0.310	9.7914E-06
0.320	6.3728E-06
0.330	3.9203E-06
0.340	2.2177E-06
0.350	1.1552E-06
0.360	5.9087E-07
0.370	2.8883E-07
0.380	1.5234E-07
0.390	8.3093E-08
0.400	5.3185E-08
0.420	2.2304E-08
0.440	2.3366E-08
0.460	2.4428E-08
0.480	2.5490E-08
0.500	2.6552E-08
0.550	2.9208E-08
0.600	3.1863E-08
0.650	3.4518E-08
0.700	3.7173E-08
0.800	4.2484E-08
1.060	5.6291E-08
1.500	7.9657E-08
2.000	1.0621E-07
