Material: glass / sumita / K-PSFn1
Optical constants. SUMITA Zemax catalog 2017-02-02 (obtained from http://www.sumita-opt.co.jp)See also SUMITA optical glass data book
Specs: {"n_absolute": false, "wavelength_vacuum": false, "temperature": "20.0 °C", "thermal_dispersion": [{"type": "Schott formula", "coefficients": "-3.11e-06 1.75e-08 -2.81e-10 1.25e-06 1.62e-09 0.307"}], "nd": 1.9068, "Vd": 21.2, "glass_code": 907212, "density": "4.15 g/cm3", "thermal_expansion": [{"temperature_range": "-30 70 °C", "coefficient": "7.4e-06 K-1"}, {"temperature_range": "20 300 °C", "coefficient": "1.02e-05 K-1"}], "dPgF": 0.0245, "climatic_resistance": 1.0, "acid_resistance": 1.0}
Dispersion formula 3, range 0.4 1.55 um, coefficients 3.4407637 -0.015750622 2 0.059024249 -2 0.0035647556 -4 -0.00012641103 -6 4.0309245e-05 -8
wavelength (um)	k
0.380	1.6697E-05
0.390	7.7620E-06
0.400	4.2635E-06
0.420	1.8379E-06
0.440	1.1163E-06
0.460	8.5362E-07
0.480	6.9336E-07
0.500	5.4041E-07
0.550	2.1529E-07
0.600	1.0134E-07
0.650	8.3430E-08
0.700	5.5985E-08
0.800	3.8312E-08
1.060	1.6887E-08
1.500	7.1835E-08
2.000	4.0295E-07
