Material: glass / sumita / K-PSK500
Optical constants. SUMITA Zemax catalog 2017-02-02 (obtained from http://www.sumita-opt.co.jp)See also SUMITA optical glass data book
Specs: {"n_absolute": false, "wavelength_vacuum": false, "temperature": "20.0 °C", "thermal_dispersion": [{"type": "Schott formula", "coefficients": "-1.34e-05 6.83e-09 1.81e-11 3.74e-07 5.55e-10 0.195"}], "nd": 1.55215, "Vd": 72.0, "glass_code": 552720, "density": "3.76 g/cm3", "thermal_expansion": [{"temperature_range": "-30 70 °C", "coefficient": "1.08e-05 K-1"}, {"temperature_range": "20 300 °C", "coefficient": "1.29e-05 K-1"}], "dPgF": 0.0179, "climatic_resistance": 1.0, "acid_resistance": 2.0}
Dispersion formula 3, range 0.36 1.55 um, coefficients 2.3790067 -0.0067863375 2 0.01075028 -2 0.00017281188 -4 -3.9024656e-06 -6 2.2878462e-07 -8
wavelength (um)	k
0.270	6.2816E-06
0.280	5.3438E-06
0.290	4.1243E-06
0.300	2.9298E-06
0.310	1.8761E-06
0.320	1.1141E-06
0.330	6.1644E-07
0.340	3.4940E-07
0.350	1.6863E-07
0.360	8.6333E-08
0.370	5.9065E-08
0.380	5.0525E-08
0.390	3.1082E-08
0.400	3.1879E-08
0.420	3.3473E-08
0.440	4.6779E-08
0.460	3.6661E-08
0.480	3.8255E-08
0.500	2.6552E-08
0.550	2.9208E-08
0.600	4.7818E-08
0.650	5.1803E-08
0.700	3.7173E-08
0.800	4.2484E-08
1.060	5.6291E-08
1.500	7.9657E-08
2.000	1.0621E-07
