Material: glass / sumita / K-PSFn202(M)
Optical constants. SUMITA Zemax catalog 2017-02-02 (obtained from http://www.sumita-opt.co.jp)See also SUMITA optical glass data book
Specs: {"n_absolute": false, "wavelength_vacuum": false, "temperature": "20.0 °C", "thermal_dispersion": [{"type": "Schott formula", "coefficients": "1.41e-05 2.66e-08 -5.37e-10 2.35e-06 1.36e-09 0.301"}], "nd": 2.01365, "Vd": 21.4, "density": "6.22 g/cm3", "thermal_expansion": [{"temperature_range": "-30 70 °C", "coefficient": "7.4e-06 K-1"}, {"temperature_range": "20 300 °C", "coefficient": "8.6e-06 K-1"}], "dPgF": 0.0289, "climatic_resistance": 1.0, "acid_resistance": 4.0}
Dispersion formula 3, range 0.4 1.55 um, coefficients 3.8290543 -0.016470594 2 0.065112852 -2 0.0059865818 -4 -0.00053116084 -6 7.8076366e-05 -8
wavelength (um)	k
0.390	1.8210E-05
0.400	6.5970E-06
0.420	1.0630E-06
0.440	2.9549E-07
0.460	1.4731E-07
0.480	7.6624E-08
0.500	5.3158E-08
0.550	4.3833E-08
0.600	4.7818E-08
0.650	3.4518E-08
0.700	5.5788E-08
0.800	4.2484E-08
1.060	5.6291E-08
1.500	7.9657E-08
2.000	1.0621E-07
