Material: glass / sumita / K-SFLD66
Optical constants. SUMITA Zemax catalog 2017-02-02 (obtained from http://www.sumita-opt.co.jp)See also SUMITA optical glass data book
Specs: {"n_absolute": false, "wavelength_vacuum": false, "temperature": "20.0 °C", "thermal_dispersion": [{"type": "Schott formula", "coefficients": "-6.63e-06 1.28e-08 -1.8e-10 1.03e-06 1.51e-09 0.29"}], "nd": 1.79925, "Vd": 24.6, "glass_code": 799246, "density": "3.35 g/cm3", "thermal_expansion": [{"temperature_range": "-30 70 °C", "coefficient": "8.7e-06 K-1"}, {"temperature_range": "20 300 °C", "coefficient": "1.07e-05 K-1"}], "dPgF": 0.0152, "climatic_resistance": 1.0, "acid_resistance": 1.0}
Dispersion formula 3, range 0.4 1.55 um, coefficients 3.09503 -0.012322111 2 0.043740379 -2 0.0024511569 -4 -9.9218754e-05 -6 2.3715962e-05 -8
wavelength (um)	k
0.370	4.9683E-06
0.380	1.8133E-06
0.390	8.6400E-07
0.400	5.0983E-07
0.420	2.4255E-07
0.440	1.3929E-07
0.460	9.2677E-08
0.480	6.9381E-08
0.500	3.9989E-08
0.550	8.7623E-09
0.600	9.5589E-09
0.650	3.1129E-08
0.700	2.7922E-08
0.800	1.2745E-08
1.060	5.0764E-08
1.500	1.4411E-07
2.000	5.1762E-07
