Material: glass / sumita / K-SFLD6
Optical constants. SUMITA Zemax catalog 2017-02-02 (obtained from http://www.sumita-opt.co.jp)See also SUMITA optical glass data book
Specs: {"n_absolute": false, "wavelength_vacuum": false, "temperature": "20.0 °C", "thermal_dispersion": [{"type": "Schott formula", "coefficients": "-6.59e-06 1.77e-08 -2.13e-10 1.11e-06 8.72e-10 0.277"}], "nd": 1.80518, "Vd": 25.4, "glass_code": 805254, "density": "3.4 g/cm3", "thermal_expansion": [{"temperature_range": "-30 70 °C", "coefficient": "9.3e-06 K-1"}, {"temperature_range": "20 300 °C", "coefficient": "1.07e-05 K-1"}], "dPgF": 0.0136, "climatic_resistance": 1.0, "acid_resistance": 1.0}
Dispersion formula 3, range 0.4 1.55 um, coefficients 3.1176009 -0.012108189 2 0.044689743 -2 0.0016574765 -4 4.1984442e-05 -6 1.29135e-05 -8
wavelength (um)	k
0.370	5.8313E-06
0.380	2.2069E-06
0.390	1.1337E-06
0.400	7.3024E-07
0.420	4.1209E-07
0.440	2.8055E-07
0.460	2.1483E-07
0.480	1.6788E-07
0.500	1.4176E-07
0.550	7.9499E-08
0.600	7.2162E-08
0.650	6.2446E-08
0.700	5.0361E-08
0.800	3.1911E-08
1.060	4.2282E-08
1.500	7.1835E-08
2.000	4.1928E-07
