Material: glass / sumita / K-SKF6
Optical constants. SUMITA Zemax catalog 2017-02-02 (obtained from http://www.sumita-opt.co.jp)See also SUMITA optical glass data book
Specs: {"n_absolute": false, "wavelength_vacuum": false, "temperature": "20.0 °C", "thermal_dispersion": [{"type": "Schott formula", "coefficients": "-9.67e-06 1.6e-08 -1.08e-10 4.97e-07 6.44e-11 0.231"}], "nd": 1.512, "Vd": 52.1, "glass_code": 512521, "density": "2.51 g/cm3", "thermal_expansion": [{"temperature_range": "-30 70 °C", "coefficient": "9.5e-06 K-1"}, {"temperature_range": "20 300 °C", "coefficient": "1e-05 K-1"}], "dPgF": 0.0035, "climatic_resistance": 1.0, "acid_resistance": 4.0}
Dispersion formula 3, range 0.36 1.55 um, coefficients 2.2505164 -0.0088684142 2 0.012260534 -2 0.00042234633 -4 -2.1095054e-05 -6 2.2440064e-06 -8
wavelength (um)	k
0.320	1.5825E-05
0.330	1.3030E-05
0.340	4.2746E-06
0.350	1.3950E-06
0.360	5.1316E-07
0.370	2.4871E-07
0.380	1.6148E-07
0.390	9.7732E-08
0.400	6.7557E-08
0.420	4.7122E-08
0.440	3.1655E-08
0.460	2.2030E-08
0.480	1.9146E-08
0.500	7.9657E-09
0.550	8.7623E-09
0.600	9.5589E-09
0.650	1.0355E-08
0.700	1.1152E-08
0.800	1.2745E-08
1.060	1.6887E-08
1.500	4.7842E-08
2.000	2.2439E-07
