Material: glass / sumita / K-SKLD120
Optical constants. SUMITA Zemax catalog 2017-02-02 (obtained from http://www.sumita-opt.co.jp)See also SUMITA optical glass data book
Specs: {"n_absolute": false, "wavelength_vacuum": false, "temperature": "20.0 °C", "thermal_dispersion": [{"type": "Schott formula", "coefficients": "4.57e-06 1.39e-08 -1.08e-10 5.35e-07 5.99e-10 0.138"}], "nd": 1.5868, "Vd": 59.8, "glass_code": 587598, "density": "2.64 g/cm3", "thermal_expansion": [{"temperature_range": "-30 70 °C", "coefficient": "6.4e-06 K-1"}, {"temperature_range": "20 300 °C", "coefficient": "8.5e-06 K-1"}], "dPgF": -0.0046, "climatic_resistance": 1.0, "acid_resistance": 2.0}
Dispersion formula 3, range 0.36 1.55 um, coefficients 2.4809256 -0.011763845 2 0.013309488 -2 0.00032545605 -4 -9.9643058e-06 -6 2.0790854e-07 -8
wavelength (um)	k
0.290	8.4225E-06
0.300	5.5945E-06
0.310	3.4199E-06
0.320	2.0165E-06
0.330	1.1434E-06
0.340	6.2752E-07
0.350	3.3398E-07
0.360	1.5298E-07
0.370	9.2720E-08
0.380	5.4927E-08
0.390	2.8058E-08
0.400	1.2758E-08
0.420	1.0042E-08
0.440	1.0520E-08
0.460	7.3285E-09
0.480	7.6471E-09
0.500	7.9657E-09
0.550	8.7623E-09
0.600	9.5589E-09
0.650	1.0355E-08
0.700	1.1152E-08
0.800	1.2745E-08
1.060	1.6887E-08
1.500	4.7842E-08
2.000	3.3778E-07
