Material: glass / sumita / K-SK4
Optical constants. SUMITA Zemax catalog 2017-02-02 (obtained from http://www.sumita-opt.co.jp)See also SUMITA optical glass data book
Specs: {"n_absolute": false, "wavelength_vacuum": false, "temperature": "20.0 °C", "thermal_dispersion": [{"type": "Schott formula", "coefficients": "4.04e-07 1.86e-08 -3.68e-10 4.13e-07 4.69e-10 0.197"}], "nd": 1.61272, "Vd": 58.6, "glass_code": 613586, "density": "3.58 g/cm3", "thermal_expansion": [{"temperature_range": "-30 70 °C", "coefficient": "6.1e-06 K-1"}, {"temperature_range": "20 300 °C", "coefficient": "7.6e-06 K-1"}], "dPgF": -0.0006, "climatic_resistance": 3.0, "acid_resistance": 4.0}
Dispersion formula 3, range 0.36 1.55 um, coefficients 2.5587726 -0.0098095616 2 0.014840563 -2 0.0003193166 -4 -1.016436e-05 -6 6.6518794e-07 -8
wavelength (um)	k
0.280	8.5043E-06
0.290	4.8549E-06
0.300	2.6540E-06
0.310	1.5201E-06
0.320	8.7933E-07
0.330	4.9248E-07
0.340	2.8206E-07
0.350	1.6346E-07
0.360	1.0206E-07
0.370	6.5499E-08
0.380	4.5703E-08
0.390	3.7468E-08
0.400	2.8778E-08
0.420	3.0216E-08
0.440	3.1655E-08
0.460	1.8349E-08
0.480	1.9146E-08
0.500	1.1955E-08
0.550	1.3150E-08
0.600	9.5589E-09
0.650	1.0355E-08
0.700	1.1152E-08
0.800	1.2745E-08
1.060	1.6887E-08
1.500	2.3897E-08
2.000	4.6837E-07
