Material: glass / sumita / K-SK7
Optical constants. SUMITA Zemax catalog 2017-02-02 (obtained from http://www.sumita-opt.co.jp)See also SUMITA optical glass data book
Specs: {"n_absolute": false, "wavelength_vacuum": false, "temperature": "20.0 °C", "thermal_dispersion": [{"type": "Schott formula", "coefficients": "2.39e-07 1.74e-08 -2.81e-10 4.14e-07 1.06e-09 0.188"}], "nd": 1.60729, "Vd": 59.5, "glass_code": 607595, "density": "3.5 g/cm3", "thermal_expansion": [{"temperature_range": "-30 70 °C", "coefficient": "7.1e-06 K-1"}, {"temperature_range": "20 300 °C", "coefficient": "7.7e-06 K-1"}], "dPgF": -0.0001, "climatic_resistance": 3.0, "acid_resistance": 5.0}
Dispersion formula 3, range 0.36 1.55 um, coefficients 2.5429277 -0.01031719 2 0.014356944 -2 0.00031433872 -4 -1.0824341e-05 -6 6.8100892e-07 -8
wavelength (um)	k
0.290	1.0022E-05
0.300	4.7281E-06
0.310	2.4461E-06
0.320	1.3784E-06
0.330	7.4499E-07
0.340	4.5248E-07
0.350	2.4741E-07
0.360	1.6813E-07
0.370	1.0795E-07
0.380	7.9663E-08
0.390	7.2215E-08
0.400	6.1061E-08
0.420	6.0709E-08
0.440	6.3599E-08
0.460	5.5324E-08
0.480	5.7730E-08
0.500	4.8035E-08
0.550	3.9569E-08
0.600	3.8351E-08
0.650	4.1547E-08
0.700	2.7922E-08
0.800	1.2745E-08
1.060	1.2749E-07
1.500	2.6554E-07
2.000	7.4949E-07
