Material: glass / sumita / K-VC181
Optical constants. SUMITA Zemax catalog 2017-02-02 (obtained from http://www.sumita-opt.co.jp)See also SUMITA optical glass data book
Specs: {"n_absolute": false, "wavelength_vacuum": false, "temperature": "20.0 °C", "thermal_dispersion": [{"type": "Schott formula", "coefficients": "6.99e-06 2.24e-08 -2.94e-10 8.37e-07 3.41e-10 0.213"}], "nd": 1.81055, "Vd": 41.1, "glass_code": 811411, "density": "4.71 g/cm3", "thermal_expansion": [{"temperature_range": "-30 70 °C", "coefficient": "5.7e-06 K-1"}, {"temperature_range": "20 300 °C", "coefficient": "7.9e-06 K-1"}], "dPgF": -0.006, "climatic_resistance": 1.0, "acid_resistance": 3.0}
Dispersion formula 3, range 0.36 1.55 um, coefficients 3.1886895 -0.013820455 2 0.029631617 -2 0.0010659501 -4 -3.7795055e-05 -6 4.3966629e-06 -8
wavelength (um)	k
0.340	6.6067E-06
0.350	2.6369E-06
0.360	1.1947E-06
0.370	6.1681E-07
0.380	3.5579E-07
0.390	2.2189E-07
0.400	1.4990E-07
0.420	8.4619E-08
0.440	6.0036E-08
0.460	3.6790E-08
0.480	3.0681E-08
0.500	1.1955E-08
0.550	8.7623E-09
0.600	9.5589E-09
0.650	1.0355E-08
0.700	1.1152E-08
0.800	1.2745E-08
1.060	1.6887E-08
1.500	2.3897E-08
2.000	3.7033E-07
