Material: glass / sumita / K-VC99
Optical constants. SUMITA Zemax catalog 2017-02-02 (obtained from http://www.sumita-opt.co.jp)See also SUMITA optical glass data book
Specs: {"n_absolute": false, "wavelength_vacuum": false, "temperature": "20.0 °C", "thermal_dispersion": [{"type": "Schott formula", "coefficients": "4.51e-06 1.51e-08 -2.57e-10 7.41e-07 8.37e-10 0.205"}], "nd": 1.8506, "Vd": 41.6, "glass_code": 851416, "density": "5.15 g/cm3", "thermal_expansion": [{"temperature_range": "-30 70 °C", "coefficient": "6e-06 K-1"}, {"temperature_range": "20 300 °C", "coefficient": "7.3e-06 K-1"}], "dPgF": -0.0102, "climatic_resistance": 1.0, "acid_resistance": 2.0}
Dispersion formula 3, range 0.36 1.55 um, coefficients 3.3294765 -0.015324675 2 0.031941277 -2 0.0010078745 -4 -2.8400554e-05 -6 3.488686e-06 -8
wavelength (um)	k
0.310	1.2621E-05
0.320	6.3688E-06
0.330	3.8709E-06
0.340	2.4995E-06
0.350	1.5559E-06
0.360	9.7713E-07
0.370	6.0232E-07
0.380	3.7285E-07
0.390	2.5204E-07
0.400	1.8007E-07
0.420	1.1908E-07
0.440	8.5059E-08
0.460	7.0220E-08
0.480	4.9982E-08
0.500	3.5972E-08
0.550	2.1939E-08
0.600	2.3933E-08
0.650	3.1129E-08
0.700	3.3523E-08
0.800	1.2745E-08
1.060	1.6887E-08
1.500	2.3897E-08
2.000	4.3563E-07
