Material: glass / sumita / K-VC179(M)
Optical constants. SUMITA Zemax catalog 2017-02-02 (obtained from http://www.sumita-opt.co.jp)See also SUMITA optical glass data book
Specs: {"n_absolute": false, "wavelength_vacuum": false, "temperature": "20.0 °C", "thermal_dispersion": [{"type": "Schott formula", "coefficients": "5.81e-06 1.54e-08 -1.28e-10 7.89e-07 6.03e-10 0.215"}], "nd": 1.79441, "Vd": 41.9, "glass_code": 799418, "density": "4.65 g/cm3", "thermal_expansion": [{"temperature_range": "-30 70 °C", "coefficient": "6.1e-06 K-1"}, {"temperature_range": "20 300 °C", "coefficient": "8e-06 K-1"}], "dPgF": -0.0058, "climatic_resistance": 1.0, "acid_resistance": 3.0}
Dispersion formula 3, range 0.36 1.55 um, coefficients 3.1342666 -0.013761215 2 0.028817199 -2 0.00082006501 -4 -5.3846865e-06 -6 2.2272066e-06 -8
wavelength (um)	k
0.340	1.6250E-05
0.350	6.6607E-06
0.360	3.0184E-06
0.370	1.4803E-06
0.380	8.1858E-07
0.390	5.0888E-07
0.400	2.9042E-07
0.420	1.5707E-07
0.440	7.0239E-08
0.460	3.6661E-08
0.480	2.5490E-08
0.500	2.6552E-08
0.550	2.9208E-08
0.600	3.1863E-08
0.650	3.4518E-08
0.700	3.7173E-08
0.800	4.2484E-08
1.060	5.6291E-08
1.500	7.9657E-08
2.000	1.3976E-06
