Material: glass / sumita / K-VC185(M)
Optical constants. SUMITA Zemax catalog 2017-02-02 (obtained from http://www.sumita-opt.co.jp)See also SUMITA optical glass data book
Specs: {"n_absolute": false, "wavelength_vacuum": false, "temperature": "20.0 °C", "thermal_dispersion": [{"type": "Schott formula", "coefficients": "4.01e-06 1.77e-08 -2.37e-10 7.39e-07 1.02e-09 0.227"}], "nd": 1.84909, "Vd": 40.5, "glass_code": 854406, "density": "5.0 g/cm3", "thermal_expansion": [{"temperature_range": "-30 70 °C", "coefficient": "5.8e-06 K-1"}, {"temperature_range": "20 300 °C", "coefficient": "7e-06 K-1"}], "dPgF": -0.009, "climatic_resistance": 1.0, "acid_resistance": 3.0}
Dispersion formula 3, range 0.36 1.55 um, coefficients 3.3218568 -0.014962898 2 0.032206874 -2 0.0011931823 -4 -5.072415e-05 -6 5.1953408e-06 -8
wavelength (um)	k
0.320	6.3688E-06
0.330	3.1705E-06
0.340	1.8378E-06
0.350	1.1405E-06
0.360	7.4504E-07
0.370	5.1336E-07
0.380	3.4560E-07
0.390	2.4867E-07
0.400	2.0034E-07
0.420	1.4690E-07
0.440	1.1388E-07
0.460	1.0019E-07
0.480	8.4972E-08
0.500	6.0135E-08
0.550	3.9569E-08
0.600	3.8351E-08
0.650	2.0732E-08
0.700	2.2326E-08
0.800	2.5516E-08
1.060	1.6887E-08
1.500	2.3897E-08
2.000	3.5405E-07
