Material: glass / sumita / K-VC90
Optical constants. SUMITA Zemax catalog 2017-02-02 (obtained from http://www.sumita-opt.co.jp)See also SUMITA optical glass data book
Specs: {"n_absolute": false, "wavelength_vacuum": false, "temperature": "20.0 °C", "thermal_dispersion": [{"type": "Schott formula", "coefficients": "4.39e-07 1.31e-08 -1.78e-10 7.82e-07 9.78e-10 0.232"}], "nd": 1.8528, "Vd": 39.0, "glass_code": 853390, "density": "4.98 g/cm3", "thermal_expansion": [{"temperature_range": "-30 70 °C", "coefficient": "7.7e-06 K-1"}, {"temperature_range": "20 300 °C", "coefficient": "9.4e-06 K-1"}], "dPgF": -0.0056, "climatic_resistance": 1.0, "acid_resistance": 2.0}
Dispersion formula 3, range 0.36 1.55 um, coefficients 3.3299316 -0.013661207 2 0.034088332 -2 0.0010979548 -4 -2.7983676e-05 -6 5.172898e-06 -8
wavelength (um)	k
0.330	1.8140E-05
0.340	8.5134E-06
0.350	3.4767E-06
0.360	1.6971E-06
0.370	9.6315E-07
0.380	5.8906E-07
0.390	4.0026E-07
0.400	2.8972E-07
0.420	1.8201E-07
0.440	1.5024E-07
0.460	1.2662E-07
0.480	8.8880E-08
0.500	7.2272E-08
0.550	3.9569E-08
0.600	6.2477E-08
0.650	6.7684E-08
0.700	3.9130E-08
0.800	4.4720E-08
1.060	1.6887E-08
1.500	2.3897E-08
2.000	2.8909E-07
