Material: glass / sumita / K-ZnSF8(M)
Optical constants. SUMITA Zemax catalog 2017-02-02 (obtained from http://www.sumita-opt.co.jp)See also SUMITA optical glass data book
Specs: {"n_absolute": false, "wavelength_vacuum": false, "temperature": "20.0 °C", "thermal_dispersion": [{"type": "Schott formula", "coefficients": "1.49e-05 1.99e-08 -2.6e-10 8.88e-07 7.78e-10 0.234"}], "nd": 1.71143, "Vd": 38.9, "glass_code": 714389, "density": "3.72 g/cm3", "thermal_expansion": [{"temperature_range": "-30 70 °C", "coefficient": "4.9e-06 K-1"}, {"temperature_range": "20 300 °C", "coefficient": "6e-06 K-1"}], "dPgF": -0.0047, "climatic_resistance": 2.0, "acid_resistance": 4.0}
Dispersion formula 3, range 0.36 1.55 um, coefficients 2.8508369 -0.012006057 2 0.025904826 -2 0.0009056149 -4 -2.8090015e-05 -6 4.695922e-06 -8
wavelength (um)	k
0.340	6.0469E-06
0.350	2.2426E-06
0.360	1.0465E-06
0.370	5.3094E-07
0.380	3.0185E-07
0.390	1.9203E-07
0.400	1.2663E-07
0.420	8.4619E-08
0.440	6.7167E-08
0.460	5.5324E-08
0.480	4.6114E-08
0.500	4.8035E-08
0.550	3.5155E-08
0.600	2.3933E-08
0.650	1.5541E-08
0.700	1.6736E-08
0.800	1.2745E-08
1.060	1.6887E-08
1.500	2.3897E-08
2.000	6.0004E-07
