Material: organic / C4H10O3S - diethyl sulfite / Querry
Optical constants. M. R. Querry. Optical constants of minerals and other materials from the millimeter to the ultraviolet, Contractor Report CRDEC-CR-88009 (1987)
wavelength (um)	n	k
0.3000	1.442	.0000170
0.3200	1.442	.0000080
0.3400	1.442	.0000040
0.3600	1.442	.0000030
0.3800	1.442	.0000020
0.4000	1.442	.0000020
0.4200	1.442	.0000010
0.4400	1.442	.0000010
0.4600	1.442	.0000010
0.4800	1.442	.0000010
0.5000	1.442	.0000010
0.5200	1.442	.0000010
0.5400	1.442	.0000010
0.5600	1.442	.0000010
0.5800	1.442	.0000010
0.6000	1.442	.0000010
0.6200	1.442	.0000010
0.6400	1.442	.0000010
0.6600	1.442	.0000010
0.6800	1.442	.0000010
0.7000	1.442	.0000010
0.7200	1.442	.0000010
0.7400	1.442	.0000010
0.7600	1.442	.0000000
0.7800	1.442	.0000000
0.8000	1.442	.0000000
0.8200	1.442	.0000010
0.8400	1.442	.0000010
0.8600	1.442	.0000010
0.8800	1.442	.0000010
0.9000	1.442	.0000020
0.9200	1.442	.0000020
0.9400	1.442	.0000010
0.9600	1.442	.0000010
0.9800	1.442	.0000010
1.0000	1.442	.0000010
1.0200	1.442	.0000010
1.0400	1.442	.0000010
1.0600	1.442	.0000010
1.0800	1.442	.0000010
1.1000	1.442	.0000010
1.1200	1.442	.0000010
1.1400	1.442	.0000040
1.1600	1.442	.0000060
1.1800	1.442	.0000170
1.2000	1.442	.0000150
1.2200	1.442	.0000050
1.2400	1.442	.0000020
1.2600	1.442	.0000020
1.2800	1.442	.0000020
1.3000	1.441	.0000020
1.3200	1.441	.0000010
1.3400	1.441	.0000020
1.3600	1.441	.0000080
1.3800	1.441	.0000150
1.4000	1.441	.0000150
1.4200	1.441	.0000110
1.4400	1.441	.0000090
1.4600	1.441	.0000060
1.4800	1.441	.0000060
1.5000	1.441	.0000040
1.5200	1.441	.0000030
1.5400	1.441	.0000030
1.5600	1.441	.0000030
1.5800	1.441	.0000020
1.6000	1.441	.0000030
1.6200	1.441	.0000060
1.6400	1.441	.0000080
1.6600	1.441	.0000110
1.6800	1.441	.0000500
1.7000	1.441	.0001600
1.7200	1.441	.0001070
1.7400	1.441	.0001760
1.7600	1.441	.0001790
1.7800	1.441	.0000490
1.8000	1.441	.0000240
1.8200	1.441	.0000220
1.8400	1.441	.0000400
1.8600	1.441	.0000340
1.8800	1.441	.0000200
1.9000	1.441	.0000260
1.9200	1.441	.0000330
1.9400	1.441	.0000260
1.9600	1.441	.0000200
1.9800	1.441	.0000210
2.0000	1.441	.0000300
2.0200	1.441	.0000360
2.0400	1.441	.0000320
2.0600	1.440	.0000240
2.0800	1.440	.0000210
2.1000	1.440	.0000260
2.1200	1.440	.0000310
2.1400	1.440	.0000340
2.1600	1.440	.0000390
2.1800	1.440	.0000470
2.2000	1.440	.0000550
2.2200	1.440	.0000830
2.2400	1.440	.0001230
2.2600	1.439	.0004310
2.2800	1.440	.0007800
2.3000	1.440	.0011280
2.3200	1.440	.0006860
2.3400	1.440	.0004020
2.3600	1.440	.0006840
2.3800	1.440	.0006650
2.4000	1.440	.0005380
2.4200	1.440	.0003170
2.4400	1.440	.0002470
2.4600	1.440	.0003370
2.4800	1.440	.0002850
2.5000	1.440	.0003840
2.5126	1.440	.0003700
2.5253	1.440	.0003940
2.5381	1.440	.0003480
2.5510	1.440	.0003110
2.5641	1.440	.0002730
2.5773	1.440	.0002070
2.5907	1.440	.0001570
2.6042	1.439	.0001500
2.6178	1.439	.0001140
2.6316	1.439	.0000980
2.6455	1.439	.0001200
2.6596	1.439	.0001560
2.6738	1.439	.0001960
2.6882	1.439	.0002220
2.7027	1.439	.0002410
2.7174	1.439	.0002430
2.7322	1.439	.0002470
2.7473	1.439	.0002490
2.7624	1.439	.0002630
2.7778	1.439	.0002390
2.7933	1.438	.0002190
2.8090	1.438	.0002230
2.8249	1.438	.0002100
2.8409	1.438	.0002150
2.8571	1.438	.0002010
2.8736	1.438	.0001800
2.8902	1.438	.0001670
2.9070	1.438	.0001580
2.9240	1.437	.0001420
2.9412	1.437	.0001340
2.9586	1.437	.0001550
2.9762	1.437	.0001960
2.9940	1.436	.0002680
3.0120	1.436	.0003030
3.0303	1.436	.0003340
3.0488	1.436	.0003350
3.0675	1.435	.0003680
3.0864	1.435	.0004140
3.1056	1.434	.0005620
3.1250	1.434	.0007150
3.1348	1.434	.0007450
3.1646	1.433	.0007860
3.1847	1.432	.0007850
3.2051	1.431	.0007880
3.2258	1.430	.0009220
3.2468	1.428	.0011700
3.2680	1.426	.0014710
3.2895	1.423	.0019860
3.3113	1.418	.0030250
3.3333	1.408	.0074600
3.3557	1.393	.0315250
3.3784	1.440	.0552870
3.4014	1.433	.0345340
3.4247	1.458	.0498260
3.4483	1.464	.0244700
3.4722	1.454	.0222750
3.4965	1.465	.0212510
3.5211	1.465	.0100150
3.5461	1.461	.0044050
3.5714	1.457	.0018490
3.5971	1.454	.0011000
3.6232	1.452	.0008270
3.6496	1.450	.0010870
3.6765	1.449	.0014550
3.7037	1.449	.0010970
3.7313	1.448	.0008790
3.7594	1.448	.0004980
3.7879	1.447	.0003460
3.8168	1.446	.0002800
3.8462	1.446	.0002750
3.8760	1.445	.0002330
3.9063	1.445	.0002520
3.9370	1.445	.0002620
3.9683	1.444	.0003560
4.0000	1.444	.0003850
4.0323	1.444	.0004340
4.0650	1.444	.0004630
4.0984	1.443	.0004190
4.1322	1.443	.0006540
4.1667	1.443	.0005290
4.2017	1.443	.0003570
4.2373	1.443	.0003230
4.2735	1.443	.0004390
4.3103	1.443	.0002560
4.3478	1.442	.0002460
4.3860	1.442	.0002840
4.4248	1.442	.0003740
4.4643	1.442	.0005750
4.5045	1.442	.0006470
4.5455	1.442	.0004420
4.5872	1.442	.0003940
4.6296	1.441	.0004510
4.6729	1.441	.0003380
4.7170	1.441	.0002830
4.7619	1.441	.0002440
4.8077	1.441	.0002720
4.8544	1.441	.0003020
4.9020	1.440	.0002360
4.9505	1.440	.0003870
5.0000	1.440	.0003480
5.0505	1.440	.0003010
5.1020	1.440	.0003120
5.1546	1.439	.0003440
5.2083	1.439	.0002690
5.2632	1.439	.0002180
5.3191	1.439	.0002280
5.3763	1.438	.0001940
5.4348	1.438	.0002650
5.4945	1.437	.0003280
5.5556	1.437	.0004110
5.6180	1.436	.0004880
5.6818	1.435	.0008740
5.7471	1.434	.0044310
5.8140	1.439	.0036330
5.8824	1.437	.0011560
5.9524	1.436	.0010960
6.0241	1.435	.0010840
6.0976	1.434	.0011410
6.1728	1.433	.0012280
6.2500	1.433	.0014550
6.3291	1.431	.0015570
6.4103	1.430	.0015140
6.4935	1.428	.0017310
6.5789	1.424	.0023270
6.6667	1.419	.0036840
6.7568	1.407	.0082490
6.8493	1.401	.0499080
6.9444	1.457	.0400640
7.0423	1.455	.0213940
7.1429	1.445	.0088750
7.2464	1.434	.0295170
7.3529	1.456	.0082880
7.4627	1.443	.0036310
7.5758	1.435	.0044120
7.6923	1.425	.0076030
7.8125	1.403	.0238160
7.9365	1.424	.0827380
8.0645	1.490	.0278960
8.1967	1.468	.0049410
8.3333	1.456	.0031010
8.4746	1.450	.0028980
8.6207	1.446	.0039230
8.7719	1.441	.0066310
8.9286	1.439	.0116690
9.0909	1.441	.0173720
9.2593	1.443	.0207770
9.4340	1.451	.0157310
9.6154	1.449	.0172660
9.8039	1.452	.0198380
10.0000	1.455	.0120000
10.2041	1.446	.0229090
10.4167	1.468	.0111650
10.6383	1.459	.0034490
10.8696	1.455	.0021650
11.1111	1.451	.0021160
11.3636	1.448	.0038600
11.6279	1.447	.0043180
11.9048	1.441	.0048370
12.1951	1.436	.0163120
12.5000	1.447	.0258210
12.8205	1.461	.0237840
13.1579	1.464	.0128190
13.5135	1.460	.0104650
13.8889	1.459	.0041280
14.2857	1.453	.0079500
14.7059	1.460	.0062650
15.1515	1.456	.0054830
15.6250	1.458	.0068620
16.1290	1.459	.0023240
16.6667	1.457	.0013100
17.2414	1.455	.0013160
17.8571	1.455	.0013880
18.5185	1.454	.0014880
19.2308	1.454	.0018280
