Material: inorganic / ReS2 / Munkhbat-gamma
Optical constants. B. Munkhbat, P. Wrobel, T. J. Antosiewicz, T. O. Shegai. Optical constants of several multilayer transition metal dichalcogenides spectroscopic ellipsometry in the 300–1700 nm range: High index, anisotropy, and hyperbolicity, ACS Photonics 9, 2398–2407 (2022) (Numerical data kindly provided by Tomasz Antosiewicz)
Comments: Multilayer flakes. nγ. Room temperature.
Specs: {"n_absolute": true, "wavelength_vacuum": true}
wavelength (um)	n
3.000000E-01	2.996734E+00
3.030000E-01	2.988040E+00
3.060000E-01	2.979693E+00
3.090000E-01	2.971674E+00
3.120000E-01	2.963965E+00
3.150000E-01	2.956549E+00
3.180000E-01	2.949411E+00
3.210000E-01	2.942536E+00
3.240000E-01	2.935910E+00
3.270000E-01	2.929522E+00
3.300000E-01	2.923359E+00
3.330000E-01	2.917411E+00
3.360000E-01	2.911666E+00
3.390000E-01	2.906116E+00
3.420000E-01	2.900751E+00
3.450000E-01	2.895563E+00
3.480000E-01	2.890543E+00
3.510000E-01	2.885684E+00
3.540000E-01	2.880980E+00
3.570000E-01	2.876422E+00
3.600000E-01	2.872005E+00
3.630000E-01	2.867723E+00
3.660000E-01	2.863570E+00
3.690000E-01	2.859541E+00
3.720000E-01	2.855631E+00
3.750000E-01	2.851835E+00
3.780000E-01	2.848148E+00
3.810000E-01	2.844566E+00
3.840000E-01	2.841084E+00
3.870000E-01	2.837700E+00
3.900000E-01	2.834409E+00
3.930000E-01	2.831208E+00
3.960000E-01	2.828094E+00
3.990000E-01	2.825062E+00
4.020000E-01	2.822111E+00
4.050000E-01	2.819236E+00
4.080000E-01	2.816437E+00
4.110000E-01	2.813709E+00
4.140000E-01	2.811051E+00
4.170000E-01	2.808459E+00
4.200000E-01	2.805932E+00
4.230000E-01	2.803467E+00
4.260000E-01	2.801063E+00
4.290000E-01	2.798717E+00
4.320000E-01	2.796428E+00
4.350000E-01	2.794192E+00
4.380000E-01	2.792010E+00
4.410000E-01	2.789879E+00
4.440000E-01	2.787797E+00
4.470000E-01	2.785763E+00
4.500000E-01	2.783775E+00
4.530000E-01	2.781832E+00
4.560000E-01	2.779933E+00
4.590000E-01	2.778076E+00
4.620000E-01	2.776259E+00
4.650000E-01	2.774483E+00
4.680000E-01	2.772745E+00
4.710000E-01	2.771044E+00
4.740000E-01	2.769380E+00
4.770000E-01	2.767751E+00
4.800000E-01	2.766156E+00
4.830000E-01	2.764595E+00
4.860000E-01	2.763065E+00
4.890000E-01	2.761567E+00
4.920000E-01	2.760100E+00
4.950000E-01	2.758662E+00
4.980000E-01	2.757253E+00
5.010000E-01	2.755873E+00
5.040000E-01	2.754519E+00
5.070000E-01	2.753192E+00
5.100000E-01	2.751891E+00
5.130000E-01	2.750616E+00
5.160000E-01	2.749364E+00
5.190000E-01	2.748137E+00
5.220000E-01	2.746933E+00
5.250000E-01	2.745751E+00
5.280000E-01	2.744592E+00
5.310000E-01	2.743454E+00
5.340000E-01	2.742338E+00
5.370000E-01	2.741241E+00
5.400000E-01	2.740165E+00
5.430000E-01	2.739108E+00
5.460000E-01	2.738070E+00
5.490000E-01	2.737051E+00
5.520000E-01	2.736049E+00
5.550000E-01	2.735066E+00
5.580000E-01	2.734099E+00
5.610000E-01	2.733150E+00
5.640000E-01	2.732217E+00
5.670000E-01	2.731300E+00
5.700000E-01	2.730398E+00
5.730000E-01	2.729512E+00
5.760000E-01	2.728641E+00
5.790000E-01	2.727784E+00
5.820000E-01	2.726942E+00
5.850000E-01	2.726114E+00
5.880000E-01	2.725299E+00
5.910000E-01	2.724498E+00
5.940000E-01	2.723710E+00
5.970000E-01	2.722934E+00
6.000000E-01	2.722171E+00
6.030000E-01	2.721421E+00
6.060000E-01	2.720682E+00
6.090000E-01	2.719955E+00
6.120000E-01	2.719239E+00
6.150000E-01	2.718535E+00
6.180000E-01	2.717841E+00
6.210000E-01	2.717158E+00
6.240000E-01	2.716486E+00
6.270000E-01	2.715824E+00
6.300000E-01	2.715172E+00
6.330000E-01	2.714530E+00
6.360000E-01	2.713898E+00
6.390000E-01	2.713275E+00
6.420000E-01	2.712661E+00
6.450000E-01	2.712057E+00
6.480000E-01	2.711461E+00
6.510000E-01	2.710875E+00
6.540000E-01	2.710296E+00
6.570000E-01	2.709727E+00
6.600000E-01	2.709165E+00
6.630000E-01	2.708612E+00
6.660000E-01	2.708066E+00
6.690000E-01	2.707528E+00
6.720000E-01	2.706998E+00
6.750000E-01	2.706475E+00
6.780000E-01	2.705960E+00
6.810000E-01	2.705451E+00
6.840000E-01	2.704950E+00
6.870000E-01	2.704456E+00
6.900000E-01	2.703969E+00
6.930000E-01	2.703488E+00
6.960000E-01	2.703014E+00
6.990000E-01	2.702546E+00
7.020000E-01	2.702084E+00
7.050000E-01	2.701629E+00
7.080000E-01	2.701180E+00
7.110000E-01	2.700737E+00
7.140000E-01	2.700299E+00
7.170000E-01	2.699868E+00
7.200000E-01	2.699442E+00
7.230000E-01	2.699021E+00
7.260000E-01	2.698607E+00
7.290000E-01	2.698197E+00
7.320000E-01	2.697793E+00
7.350000E-01	2.697394E+00
7.380000E-01	2.697000E+00
7.410000E-01	2.696611E+00
7.440000E-01	2.696227E+00
7.470000E-01	2.695848E+00
7.500000E-01	2.695473E+00
7.530000E-01	2.695103E+00
7.560000E-01	2.694738E+00
7.590000E-01	2.694378E+00
7.620000E-01	2.694021E+00
7.650000E-01	2.693669E+00
7.680000E-01	2.693322E+00
7.710000E-01	2.692979E+00
7.740000E-01	2.692640E+00
7.770000E-01	2.692305E+00
7.800000E-01	2.691974E+00
7.830000E-01	2.691646E+00
7.860000E-01	2.691323E+00
7.890000E-01	2.691004E+00
7.920000E-01	2.690688E+00
7.950000E-01	2.690377E+00
7.980000E-01	2.690069E+00
8.010000E-01	2.689764E+00
8.040000E-01	2.689463E+00
8.070000E-01	2.689165E+00
8.100000E-01	2.688871E+00
8.130000E-01	2.688581E+00
8.160000E-01	2.688293E+00
8.190000E-01	2.688009E+00
8.220000E-01	2.687728E+00
8.250000E-01	2.687451E+00
8.280000E-01	2.687176E+00
8.310000E-01	2.686904E+00
8.340000E-01	2.686636E+00
8.370000E-01	2.686371E+00
8.400000E-01	2.686108E+00
8.430000E-01	2.685848E+00
8.460000E-01	2.685592E+00
8.490000E-01	2.685338E+00
8.520000E-01	2.685086E+00
8.550000E-01	2.684838E+00
8.580000E-01	2.684592E+00
8.610000E-01	2.684349E+00
8.640000E-01	2.684109E+00
8.670000E-01	2.683871E+00
8.700000E-01	2.683636E+00
8.730000E-01	2.683403E+00
8.760000E-01	2.683172E+00
8.790000E-01	2.682944E+00
8.820000E-01	2.682719E+00
8.850000E-01	2.682496E+00
8.880000E-01	2.682275E+00
8.910000E-01	2.682056E+00
8.940000E-01	2.681840E+00
8.970000E-01	2.681626E+00
9.000000E-01	2.681414E+00
9.030000E-01	2.681205E+00
9.060000E-01	2.680997E+00
9.090000E-01	2.680792E+00
9.120000E-01	2.680589E+00
9.150000E-01	2.680387E+00
9.180000E-01	2.680188E+00
9.210000E-01	2.679991E+00
9.240000E-01	2.679796E+00
9.270000E-01	2.679602E+00
9.300000E-01	2.679411E+00
9.330000E-01	2.679222E+00
9.360000E-01	2.679034E+00
9.390000E-01	2.678848E+00
9.420000E-01	2.678664E+00
9.450000E-01	2.678482E+00
9.480000E-01	2.678302E+00
9.510000E-01	2.678123E+00
9.540000E-01	2.677947E+00
9.570000E-01	2.677771E+00
9.600000E-01	2.677598E+00
9.630000E-01	2.677426E+00
9.660000E-01	2.677256E+00
9.690000E-01	2.677088E+00
9.720000E-01	2.676921E+00
9.750000E-01	2.676755E+00
9.780000E-01	2.676592E+00
9.810000E-01	2.676429E+00
9.840000E-01	2.676269E+00
9.870000E-01	2.676109E+00
9.900000E-01	2.675952E+00
9.930000E-01	2.675796E+00
9.960000E-01	2.675641E+00
9.990000E-01	2.675487E+00
1.005000E+00	2.675185E+00
1.012500E+00	2.674814E+00
1.020000E+00	2.674452E+00
1.027500E+00	2.674098E+00
1.035000E+00	2.673752E+00
1.042500E+00	2.673414E+00
1.050000E+00	2.673082E+00
1.057500E+00	2.672759E+00
1.065000E+00	2.672442E+00
1.072500E+00	2.672131E+00
1.080000E+00	2.671828E+00
1.087500E+00	2.671531E+00
1.095000E+00	2.671240E+00
1.102500E+00	2.670955E+00
1.110000E+00	2.670676E+00
1.117500E+00	2.670402E+00
1.125000E+00	2.670135E+00
1.132500E+00	2.669872E+00
1.140000E+00	2.669615E+00
1.147500E+00	2.669363E+00
1.155000E+00	2.669116E+00
1.162500E+00	2.668874E+00
1.170000E+00	2.668637E+00
1.177500E+00	2.668404E+00
1.185000E+00	2.668176E+00
1.192500E+00	2.667952E+00
1.200000E+00	2.667732E+00
1.207500E+00	2.667516E+00
1.215000E+00	2.667305E+00
1.222500E+00	2.667097E+00
1.230000E+00	2.666894E+00
1.237500E+00	2.666694E+00
1.245000E+00	2.666498E+00
1.252500E+00	2.666305E+00
1.260000E+00	2.666116E+00
1.267500E+00	2.665930E+00
1.275000E+00	2.665748E+00
1.282500E+00	2.665568E+00
1.290000E+00	2.665392E+00
1.297500E+00	2.665219E+00
1.305000E+00	2.665049E+00
1.312500E+00	2.664882E+00
1.320000E+00	2.664718E+00
1.327500E+00	2.664557E+00
1.335000E+00	2.664398E+00
1.342500E+00	2.664242E+00
1.350000E+00	2.664089E+00
1.357500E+00	2.663939E+00
1.365000E+00	2.663790E+00
1.372500E+00	2.663645E+00
1.380000E+00	2.663501E+00
1.387500E+00	2.663360E+00
1.395000E+00	2.663222E+00
1.402500E+00	2.663085E+00
1.410000E+00	2.662951E+00
1.417500E+00	2.662819E+00
1.425000E+00	2.662689E+00
1.432500E+00	2.662561E+00
1.440000E+00	2.662435E+00
1.447500E+00	2.662312E+00
1.455000E+00	2.662190E+00
1.462500E+00	2.662070E+00
1.470000E+00	2.661951E+00
1.477500E+00	2.661835E+00
1.485000E+00	2.661720E+00
1.492500E+00	2.661607E+00
1.500000E+00	2.661496E+00
1.507500E+00	2.661387E+00
1.515000E+00	2.661279E+00
1.522500E+00	2.661173E+00
1.530000E+00	2.661068E+00
1.537500E+00	2.660965E+00
1.545000E+00	2.660863E+00
1.552500E+00	2.660763E+00
1.560000E+00	2.660665E+00
1.567500E+00	2.660567E+00
1.575000E+00	2.660472E+00
1.582500E+00	2.660377E+00
1.590000E+00	2.660284E+00
1.597500E+00	2.660192E+00
1.605000E+00	2.660102E+00
1.612500E+00	2.660012E+00
1.620000E+00	2.659924E+00
1.627500E+00	2.659838E+00
1.635000E+00	2.659752E+00
1.642500E+00	2.659668E+00
1.650000E+00	2.659585E+00
1.657500E+00	2.659503E+00
1.665000E+00	2.659422E+00
1.672500E+00	2.659342E+00
1.680000E+00	2.659263E+00
1.687500E+00	2.659185E+00
