Material: inorganic / ReS2 / Munkhbat-alpha
Optical constants. B. Munkhbat, P. Wrobel, T. J. Antosiewicz, T. O. Shegai. Optical constants of several multilayer transition metal dichalcogenides spectroscopic ellipsometry in the 300–1700 nm range: High index, anisotropy, and hyperbolicity, ACS Photonics 9, 2398–2407 (2022) (Numerical data kindly provided by Tomasz Antosiewicz)
Comments: Multilayer flakes. nα, kα. Room temperature.
Specs: {"n_absolute": true, "wavelength_vacuum": true}
wavelength (um)	n	k
3.000000e-01	3.257737e+00	2.173416e+00
3.030000e-01	3.266571e+00	2.172464e+00
3.060000e-01	3.277774e+00	2.172975e+00
3.090000e-01	3.291336e+00	2.174372e+00
3.120000e-01	3.307156e+00	2.176140e+00
3.150000e-01	3.325066e+00	2.177834e+00
3.180000e-01	3.344847e+00	2.179077e+00
3.210000e-01	3.366242e+00	2.179560e+00
3.240000e-01	3.388975e+00	2.179042e+00
3.270000e-01	3.412755e+00	2.177345e+00
3.300000e-01	3.437288e+00	2.174350e+00
3.330000e-01	3.462285e+00	2.169991e+00
3.360000e-01	3.487470e+00	2.164251e+00
3.390000e-01	3.512580e+00	2.157161e+00
3.420000e-01	3.537377e+00	2.148788e+00
3.450000e-01	3.561644e+00	2.139236e+00
3.480000e-01	3.585194e+00	2.128639e+00
3.510000e-01	3.607872e+00	2.117155e+00
3.540000e-01	3.629554e+00	2.104965e+00
3.570000e-01	3.650154e+00	2.092265e+00
3.600000e-01	3.669623e+00	2.079265e+00
3.630000e-01	3.687953e+00	2.066179e+00
3.660000e-01	3.705182e+00	2.053224e+00
3.690000e-01	3.721394e+00	2.040609e+00
3.720000e-01	3.736725e+00	2.028526e+00
3.750000e-01	3.751365e+00	2.017140e+00
3.780000e-01	3.765563e+00	2.006566e+00
3.810000e-01	3.779629e+00	1.996841e+00
3.840000e-01	3.793894e+00	1.987800e+00
3.870000e-01	3.808499e+00	1.979254e+00
3.900000e-01	3.823632e+00	1.970974e+00
3.930000e-01	3.839379e+00	1.962603e+00
3.960000e-01	3.855639e+00	1.953722e+00
3.990000e-01	3.872079e+00	1.943967e+00
4.020000e-01	3.888169e+00	1.933162e+00
4.050000e-01	3.903304e+00	1.921429e+00
4.080000e-01	3.916973e+00	1.909206e+00
4.110000e-01	3.928922e+00	1.897155e+00
4.140000e-01	3.939223e+00	1.885999e+00
4.170000e-01	3.948249e+00	1.876370e+00
4.200000e-01	3.956577e+00	1.868700e+00
4.230000e-01	3.964888e+00	1.863186e+00
4.260000e-01	3.973876e+00	1.859800e+00
4.290000e-01	3.984192e+00	1.858317e+00
4.320000e-01	3.996401e+00	1.858342e+00
4.350000e-01	4.010962e+00	1.859334e+00
4.380000e-01	4.028201e+00	1.860594e+00
4.410000e-01	4.048155e+00	1.861334e+00
4.440000e-01	4.070674e+00	1.860820e+00
4.470000e-01	4.095403e+00	1.858350e+00
4.500000e-01	4.121774e+00	1.853346e+00
4.530000e-01	4.149057e+00	1.845432e+00
4.560000e-01	4.176441e+00	1.834494e+00
4.590000e-01	4.203149e+00	1.820686e+00
4.620000e-01	4.228535e+00	1.804396e+00
4.650000e-01	4.252157e+00	1.786159e+00
4.680000e-01	4.273796e+00	1.766560e+00
4.710000e-01	4.293436e+00	1.746146e+00
4.740000e-01	4.311207e+00	1.725371e+00
4.770000e-01	4.327328e+00	1.704563e+00
4.800000e-01	4.342047e+00	1.683930e+00
4.830000e-01	4.355601e+00	1.663579e+00
4.860000e-01	4.368194e+00	1.643543e+00
4.890000e-01	4.379982e+00	1.623805e+00
4.920000e-01	4.391078e+00	1.604327e+00
4.950000e-01	4.401548e+00	1.585058e+00
4.980000e-01	4.411431e+00	1.565956e+00
5.010000e-01	4.420736e+00	1.546988e+00
5.040000e-01	4.429460e+00	1.528134e+00
5.070000e-01	4.437588e+00	1.509393e+00
5.100000e-01	4.445104e+00	1.490776e+00
5.130000e-01	4.451993e+00	1.472307e+00
5.160000e-01	4.458244e+00	1.454020e+00
5.190000e-01	4.463854e+00	1.435958e+00
5.220000e-01	4.468825e+00	1.418167e+00
5.250000e-01	4.473169e+00	1.400695e+00
5.280000e-01	4.476906e+00	1.383593e+00
5.310000e-01	4.480063e+00	1.366910e+00
5.340000e-01	4.482672e+00	1.350690e+00
5.370000e-01	4.484773e+00	1.334977e+00
5.400000e-01	4.486411e+00	1.319810e+00
5.430000e-01	4.487634e+00	1.305221e+00
5.460000e-01	4.488494e+00	1.291242e+00
5.490000e-01	4.489044e+00	1.277894e+00
5.520000e-01	4.489341e+00	1.265200e+00
5.550000e-01	4.489442e+00	1.253172e+00
5.580000e-01	4.489405e+00	1.241823e+00
5.610000e-01	4.489290e+00	1.231157e+00
5.640000e-01	4.489156e+00	1.221179e+00
5.670000e-01	4.489064e+00	1.211887e+00
5.700000e-01	4.489075e+00	1.203276e+00
5.730000e-01	4.489252e+00	1.195337e+00
5.760000e-01	4.489656e+00	1.188058e+00
5.790000e-01	4.490354e+00	1.181424e+00
5.820000e-01	4.491410e+00	1.175415e+00
5.850000e-01	4.492893e+00	1.170005e+00
5.880000e-01	4.494873e+00	1.165165e+00
5.910000e-01	4.497425e+00	1.160859e+00
5.940000e-01	4.500624e+00	1.157041e+00
5.970000e-01	4.504549e+00	1.153659e+00
6.000000e-01	4.509281e+00	1.150649e+00
6.030000e-01	4.514903e+00	1.147933e+00
6.060000e-01	4.521500e+00	1.145419e+00
6.090000e-01	4.529154e+00	1.142994e+00
6.120000e-01	4.537942e+00	1.140526e+00
6.150000e-01	4.547934e+00	1.137857e+00
6.180000e-01	4.559184e+00	1.134802e+00
6.210000e-01	4.571724e+00	1.131149e+00
6.240000e-01	4.585555e+00	1.126655e+00
6.270000e-01	4.600634e+00	1.121053e+00
6.300000e-01	4.616863e+00	1.114056e+00
6.330000e-01	4.634079e+00	1.105372e+00
6.360000e-01	4.652036e+00	1.094714e+00
6.390000e-01	4.670410e+00	1.081830e+00
6.420000e-01	4.688789e+00	1.066528e+00
6.450000e-01	4.706695e+00	1.048705e+00
6.480000e-01	4.723601e+00	1.028379e+00
6.510000e-01	4.738971e+00	1.005701e+00
6.540000e-01	4.752305e+00	9.809704e-01
6.570000e-01	4.763182e+00	9.546138e-01
6.600000e-01	4.771308e+00	9.271612e-01
6.630000e-01	4.776537e+00	8.991990e-01
6.660000e-01	4.778881e+00	8.713189e-01
6.690000e-01	4.778499e+00	8.440688e-01
6.720000e-01	4.775671e+00	8.179138e-01
6.750000e-01	4.770756e+00	7.932115e-01
6.780000e-01	4.764155e+00	7.702042e-01
6.810000e-01	4.756278e+00	7.490231e-01
6.840000e-01	4.747512e+00	7.297036e-01
6.870000e-01	4.738204e+00	7.122045e-01
6.900000e-01	4.728651e+00	6.964286e-01
6.930000e-01	4.719098e+00	6.822418e-01
6.960000e-01	4.709735e+00	6.694894e-01
6.990000e-01	4.700709e+00	6.580086e-01
7.020000e-01	4.692123e+00	6.476377e-01
7.050000e-01	4.684048e+00	6.382220e-01
7.080000e-01	4.676528e+00	6.296181e-01
7.110000e-01	4.669586e+00	6.216954e-01
7.140000e-01	4.663231e+00	6.143375e-01
7.170000e-01	4.657458e+00	6.074411e-01
7.200000e-01	4.652262e+00	6.009161e-01
7.230000e-01	4.647635e+00	5.946837e-01
7.260000e-01	4.643589e+00	5.886737e-01
7.290000e-01	4.640198e+00	5.827270e-01
7.320000e-01	4.637275e+00	5.766177e-01
7.350000e-01	4.634656e+00	5.703588e-01
7.380000e-01	4.632256e+00	5.639659e-01
7.410000e-01	4.630010e+00	5.574532e-01
7.440000e-01	4.627864e+00	5.508353e-01
7.470000e-01	4.625772e+00	5.441281e-01
7.500000e-01	4.623694e+00	5.373491e-01
7.530000e-01	4.621591e+00	5.305185e-01
7.560000e-01	4.619427e+00	5.236593e-01
7.590000e-01	4.617171e+00	5.167979e-01
7.620000e-01	4.614790e+00	5.099652e-01
7.650000e-01	4.612253e+00	5.031974e-01
7.680000e-01	4.609533e+00	4.965366e-01
7.710000e-01	4.606601e+00	4.900326e-01
7.740000e-01	4.603433e+00	4.837442e-01
7.770000e-01	4.600005e+00	4.777411e-01
7.800000e-01	4.596300e+00	4.721068e-01
7.830000e-01	4.592302e+00	4.669414e-01
7.860000e-01	4.588008e+00	4.623661e-01
7.890000e-01	4.583423e+00	4.585281e-01
7.920000e-01	4.578572e+00	4.556082e-01
7.950000e-01	4.573508e+00	4.538285e-01
7.980000e-01	4.568325e+00	4.534642e-01
8.010000e-01	4.563186e+00	4.548564e-01
8.040000e-01	4.558360e+00	4.584258e-01
8.070000e-01	4.554282e+00	4.646846e-01
8.100000e-01	4.551657e+00	4.742347e-01
8.130000e-01	4.551619e+00	4.877268e-01
8.160000e-01	4.555967e+00	5.057170e-01
8.190000e-01	4.567461e+00	5.283073e-01
8.220000e-01	4.590097e+00	5.543537e-01
8.250000e-01	4.628824e+00	5.799270e-01
8.280000e-01	4.687524e+00	5.963039e-01
8.310000e-01	4.763918e+00	5.897184e-01
8.340000e-01	4.843741e+00	5.476543e-01
8.370000e-01	4.904007e+00	4.712889e-01
8.400000e-01	4.929108e+00	3.789719e-01
8.430000e-01	4.921160e+00	2.921571e-01
8.460000e-01	4.892648e+00	2.220955e-01
8.490000e-01	4.855387e+00	1.698850e-01
8.520000e-01	4.816551e+00	1.321502e-01
8.550000e-01	4.779473e+00	1.049193e-01
8.580000e-01	4.745323e+00	8.499985e-02
8.610000e-01	4.714257e+00	7.014050e-02
8.640000e-01	4.686039e+00	5.883669e-02
8.670000e-01	4.660324e+00	5.010366e-02
8.700000e-01	4.636785e+00	4.330103e-02
8.730000e-01	4.615175e+00	3.801238e-02
8.760000e-01	4.595418e+00	3.381479e-02
8.790000e-01	4.577072e+00	3.025784e-02
8.820000e-01	4.559815e+00	2.735280e-02
8.850000e-01	4.543526e+00	2.512503e-02
8.880000e-01	4.528183e+00	2.359627e-02
8.910000e-01	4.513894e+00	2.278426e-02
8.940000e-01	4.500924e+00	2.232529e-02
8.970000e-01	4.488912e+00	2.187019e-02
9.000000e-01	4.477650e+00	2.141999e-02
9.030000e-01	4.467022e+00	2.097525e-02
9.060000e-01	4.456943e+00	2.053633e-02
9.090000e-01	4.447348e+00	2.010348e-02
9.120000e-01	4.438185e+00	1.967685e-02
9.150000e-01	4.429411e+00	1.925657e-02
9.180000e-01	4.420992e+00	1.884272e-02
9.210000e-01	4.412895e+00	1.843532e-02
9.240000e-01	4.405095e+00	1.803441e-02
9.270000e-01	4.397569e+00	1.763998e-02
9.300000e-01	4.390297e+00	1.725200e-02
9.330000e-01	4.383261e+00	1.687046e-02
9.360000e-01	4.376445e+00	1.649530e-02
9.390000e-01	4.369835e+00	1.612649e-02
9.420000e-01	4.363419e+00	1.576396e-02
9.450000e-01	4.357184e+00	1.540766e-02
9.480000e-01	4.351121e+00	1.505752e-02
9.510000e-01	4.345220e+00	1.471347e-02
9.540000e-01	4.339473e+00	1.437543e-02
9.570000e-01	4.333871e+00	1.404335e-02
9.600000e-01	4.328408e+00	1.371713e-02
9.630000e-01	4.323076e+00	1.339671e-02
9.660000e-01	4.317870e+00	1.308200e-02
9.690000e-01	4.312783e+00	1.277294e-02
9.720000e-01	4.307811e+00	1.246943e-02
9.750000e-01	4.302949e+00	1.217141e-02
9.780000e-01	4.298191e+00	1.187879e-02
9.810000e-01	4.293535e+00	1.159149e-02
9.840000e-01	4.288974e+00	1.130945e-02
9.870000e-01	4.284507e+00	1.103258e-02
9.900000e-01	4.280129e+00	1.076081e-02
9.930000e-01	4.275837e+00	1.049405e-02
9.960000e-01	4.271629e+00	1.023224e-02
9.990000e-01	4.267500e+00	9.975309e-03
1.005000e+00	4.259471e+00	9.475754e-03
1.012500e+00	4.249839e+00	8.877181e-03
1.020000e+00	4.240622e+00	8.306285e-03
1.027500e+00	4.231789e+00	7.762035e-03
1.035000e+00	4.223313e+00	7.243445e-03
1.042500e+00	4.215169e+00	6.749569e-03
1.050000e+00	4.207335e+00	6.279499e-03
1.057500e+00	4.199791e+00	5.832368e-03
1.065000e+00	4.192519e+00	5.407347e-03
1.072500e+00	4.185503e+00	5.003643e-03
1.080000e+00	4.178729e+00	4.620497e-03
1.087500e+00	4.172182e+00	4.257187e-03
1.095000e+00	4.165850e+00	3.913020e-03
1.102500e+00	4.159723e+00	3.587337e-03
1.110000e+00	4.153790e+00	3.279506e-03
1.117500e+00	4.148040e+00	2.988924e-03
1.125000e+00	4.142466e+00	2.715015e-03
1.132500e+00	4.137059e+00	2.457227e-03
1.140000e+00	4.131811e+00	2.215034e-03
1.147500e+00	4.126716e+00	1.987932e-03
1.155000e+00	4.121766e+00	1.775438e-03
1.162500e+00	4.116955e+00	1.577091e-03
1.170000e+00	4.112278e+00	1.392449e-03
1.177500e+00	4.107729e+00	1.221090e-03
1.185000e+00	4.103304e+00	1.062607e-03
1.192500e+00	4.098996e+00	9.166114e-04
1.200000e+00	4.094803e+00	7.827316e-04
1.207500e+00	4.090719e+00	6.606099e-04
1.215000e+00	4.086740e+00	5.499034e-04
1.222500e+00	4.082864e+00	4.502829e-04
1.230000e+00	4.079086e+00	3.614324e-04
1.237500e+00	4.075404e+00	2.830484e-04
1.245000e+00	4.071813e+00	2.148392e-04
1.252500e+00	4.068312e+00	1.565242e-04
1.260000e+00	4.064898e+00	1.078338e-04
1.267500e+00	4.061568e+00	6.850861e-05
1.275000e+00	4.058320e+00	3.829879e-05
1.282500e+00	4.055152e+00	1.696392e-05
1.290000e+00	4.052062e+00	4.272412e-06
1.297500e+00	4.049051e+00	1.087855e-09
1.305000e+00	4.046119e+00	0
1.312500e+00	4.043260e+00	0
1.320000e+00	4.040471e+00	0
1.327500e+00	4.037747e+00	0
1.335000e+00	4.035087e+00	0
1.342500e+00	4.032487e+00	0
1.350000e+00	4.029947e+00	0
1.357500e+00	4.027462e+00	0
1.365000e+00	4.025032e+00	0
1.372500e+00	4.022655e+00	0
1.380000e+00	4.020329e+00	0
1.387500e+00	4.018053e+00	0
1.395000e+00	4.015824e+00	0
1.402500e+00	4.013641e+00	0
1.410000e+00	4.011503e+00	0
1.417500e+00	4.009409e+00	0
1.425000e+00	4.007357e+00	0
1.432500e+00	4.005346e+00	0
1.440000e+00	4.003375e+00	0
1.447500e+00	4.001443e+00	0
1.455000e+00	3.999548e+00	0
1.462500e+00	3.997690e+00	0
1.470000e+00	3.995867e+00	0
1.477500e+00	3.994079e+00	0
1.485000e+00	3.992324e+00	0
1.492500e+00	3.990602e+00	0
1.500000e+00	3.988912e+00	0
1.507500e+00	3.987253e+00	0
1.515000e+00	3.985624e+00	0
1.522500e+00	3.984024e+00	0
1.530000e+00	3.982453e+00	0
1.537500e+00	3.980910e+00	0
1.545000e+00	3.979394e+00	0
1.552500e+00	3.977905e+00	0
1.560000e+00	3.976442e+00	0
1.567500e+00	3.975004e+00	0
1.575000e+00	3.973590e+00	0
1.582500e+00	3.972201e+00	0
1.590000e+00	3.970835e+00	0
1.597500e+00	3.969492e+00	0
1.605000e+00	3.968171e+00	0
1.612500e+00	3.966872e+00	0
1.620000e+00	3.965595e+00	0
1.627500e+00	3.964338e+00	0
1.635000e+00	3.963102e+00	0
1.642500e+00	3.961885e+00	0
1.650000e+00	3.960689e+00	0
1.657500e+00	3.959511e+00	0
1.665000e+00	3.958352e+00	0
1.672500e+00	3.957211e+00	0
1.680000e+00	3.956087e+00	0
1.687500e+00	3.954982e+00	0
