Material: inorganic / ReS2 / Munkhbat-beta
Optical constants. B. Munkhbat, P. Wrobel, T. J. Antosiewicz, T. O. Shegai. Optical constants of several multilayer transition metal dichalcogenides spectroscopic ellipsometry in the 300–1700 nm range: High index, anisotropy, and hyperbolicity, ACS Photonics 9, 2398–2407 (2022) (Numerical data kindly provided by Tomasz Antosiewicz)
Comments: Multilayer flakes. nβ, kβ. Room temperature.
Specs: {"n_absolute": true, "wavelength_vacuum": true}
wavelength (um)	n	k
3.000000e-01	3.702110e+00	2.322700e+00
3.030000e-01	3.719551e+00	2.279328e+00
3.060000e-01	3.732756e+00	2.239611e+00
3.090000e-01	3.742693e+00	2.204029e+00
3.120000e-01	3.750367e+00	2.172841e+00
3.150000e-01	3.756769e+00	2.146090e+00
3.180000e-01	3.762835e+00	2.123626e+00
3.210000e-01	3.769414e+00	2.105127e+00
3.240000e-01	3.777239e+00	2.090131e+00
3.270000e-01	3.786915e+00	2.078065e+00
3.300000e-01	3.798896e+00	2.068272e+00
3.330000e-01	3.813488e+00	2.060049e+00
3.360000e-01	3.830841e+00	2.052674e+00
3.390000e-01	3.850954e+00	2.045435e+00
3.420000e-01	3.873689e+00	2.037662e+00
3.450000e-01	3.898780e+00	2.028750e+00
3.480000e-01	3.925857e+00	2.018181e+00
3.510000e-01	3.954463e+00	2.005542e+00
3.540000e-01	3.984088e+00	1.990536e+00
3.570000e-01	4.014188e+00	1.972983e+00
3.600000e-01	4.044215e+00	1.952829e+00
3.630000e-01	4.073642e+00	1.930128e+00
3.660000e-01	4.101985e+00	1.905040e+00
3.690000e-01	4.128821e+00	1.877810e+00
3.720000e-01	4.153797e+00	1.848751e+00
3.750000e-01	4.176647e+00	1.818225e+00
3.780000e-01	4.197185e+00	1.786621e+00
3.810000e-01	4.215313e+00	1.754343e+00
3.840000e-01	4.231008e+00	1.721784e+00
3.870000e-01	4.244323e+00	1.689321e+00
3.900000e-01	4.255373e+00	1.657298e+00
3.930000e-01	4.264324e+00	1.626021e+00
3.960000e-01	4.271389e+00	1.595749e+00
3.990000e-01	4.276809e+00	1.566694e+00
4.020000e-01	4.280853e+00	1.539016e+00
4.050000e-01	4.283802e+00	1.512823e+00
4.080000e-01	4.285942e+00	1.488171e+00
4.110000e-01	4.287560e+00	1.465065e+00
4.140000e-01	4.288932e+00	1.443461e+00
4.170000e-01	4.290318e+00	1.423268e+00
4.200000e-01	4.291951e+00	1.404351e+00
4.230000e-01	4.294036e+00	1.386533e+00
4.260000e-01	4.296736e+00	1.369604e+00
4.290000e-01	4.300169e+00	1.353327e+00
4.320000e-01	4.304401e+00	1.337446e+00
4.350000e-01	4.309440e+00	1.321696e+00
4.380000e-01	4.315237e+00	1.305818e+00
4.410000e-01	4.321685e+00	1.289571e+00
4.440000e-01	4.328625e+00	1.272745e+00
4.470000e-01	4.335851e+00	1.255175e+00
4.500000e-01	4.343128e+00	1.236750e+00
4.530000e-01	4.350198e+00	1.217418e+00
4.560000e-01	4.356803e+00	1.197194e+00
4.590000e-01	4.362699e+00	1.176152e+00
4.620000e-01	4.367668e+00	1.154419e+00
4.650000e-01	4.371535e+00	1.132171e+00
4.680000e-01	4.374170e+00	1.109611e+00
4.710000e-01	4.375495e+00	1.086963e+00
4.740000e-01	4.375486e+00	1.064454e+00
4.770000e-01	4.374165e+00	1.042307e+00
4.800000e-01	4.371599e+00	1.020724e+00
4.830000e-01	4.367888e+00	9.998854e-01
4.860000e-01	4.363161e+00	9.799414e-01
4.890000e-01	4.357565e+00	9.610117e-01
4.920000e-01	4.351258e+00	9.431848e-01
4.950000e-01	4.344405e+00	9.265184e-01
4.980000e-01	4.337169e+00	9.110422e-01
5.010000e-01	4.329714e+00	8.967604e-01
5.040000e-01	4.322194e+00	8.836540e-01
5.070000e-01	4.314769e+00	8.716715e-01
5.100000e-01	4.307547e+00	8.607252e-01
5.130000e-01	4.300620e+00	8.507519e-01
5.160000e-01	4.294078e+00	8.416781e-01
5.190000e-01	4.288003e+00	8.334210e-01
5.220000e-01	4.282461e+00	8.258906e-01
5.250000e-01	4.277508e+00	8.189920e-01
5.280000e-01	4.273185e+00	8.126268e-01
5.310000e-01	4.269520e+00	8.066949e-01
5.340000e-01	4.266529e+00	8.010963e-01
5.370000e-01	4.264215e+00	7.957321e-01
5.400000e-01	4.262569e+00	7.905065e-01
5.430000e-01	4.261570e+00	7.853277e-01
5.460000e-01	4.261188e+00	7.801095e-01
5.490000e-01	4.261381e+00	7.747726e-01
5.520000e-01	4.262099e+00	7.692455e-01
5.550000e-01	4.263285e+00	7.634657e-01
5.580000e-01	4.264876e+00	7.573805e-01
5.610000e-01	4.266805e+00	7.509471e-01
5.640000e-01	4.269002e+00	7.441337e-01
5.670000e-01	4.271394e+00	7.369189e-01
5.700000e-01	4.273910e+00	7.292921e-01
5.730000e-01	4.276481e+00	7.212523e-01
5.760000e-01	4.279040e+00	7.128082e-01
5.790000e-01	4.281526e+00	7.039768e-01
5.820000e-01	4.283882e+00	6.947825e-01
5.850000e-01	4.286059e+00	6.852559e-01
5.880000e-01	4.288012e+00	6.754327e-01
5.910000e-01	4.289707e+00	6.653521e-01
5.940000e-01	4.291114e+00	6.550560e-01
5.970000e-01	4.292212e+00	6.445873e-01
6.000000e-01	4.292988e+00	6.339892e-01
6.030000e-01	4.293432e+00	6.233041e-01
6.060000e-01	4.293544e+00	6.125726e-01
6.090000e-01	4.293328e+00	6.018328e-01
6.120000e-01	4.292791e+00	5.911198e-01
6.150000e-01	4.291948e+00	5.804651e-01
6.180000e-01	4.290813e+00	5.698965e-01
6.210000e-01	4.289407e+00	5.594374e-01
6.240000e-01	4.287750e+00	5.491070e-01
6.270000e-01	4.285863e+00	5.389202e-01
6.300000e-01	4.283771e+00	5.288872e-01
6.330000e-01	4.281497e+00	5.190141e-01
6.360000e-01	4.279063e+00	5.093025e-01
6.390000e-01	4.276491e+00	4.997496e-01
6.420000e-01	4.273802e+00	4.903487e-01
6.450000e-01	4.271012e+00	4.810890e-01
6.480000e-01	4.268138e+00	4.719556e-01
6.510000e-01	4.265191e+00	4.629304e-01
6.540000e-01	4.262179e+00	4.539915e-01
6.570000e-01	4.259105e+00	4.451142e-01
6.600000e-01	4.255963e+00	4.362715e-01
6.630000e-01	4.252745e+00	4.274344e-01
6.660000e-01	4.249432e+00	4.185733e-01
6.690000e-01	4.245997e+00	4.096589e-01
6.720000e-01	4.242401e+00	4.006645e-01
6.750000e-01	4.238597e+00	3.915676e-01
6.780000e-01	4.234525e+00	3.823533e-01
6.810000e-01	4.230114e+00	3.730172e-01
6.840000e-01	4.225282e+00	3.635699e-01
6.870000e-01	4.219938e+00	3.540407e-01
6.900000e-01	4.213989e+00	3.444827e-01
6.930000e-01	4.207340e+00	3.349762e-01
6.960000e-01	4.199904e+00	3.256317e-01
6.990000e-01	4.191612e+00	3.165905e-01
7.020000e-01	4.182423e+00	3.080229e-01
7.050000e-01	4.172329e+00	3.001228e-01
7.080000e-01	4.161371e+00	2.930980e-01
7.110000e-01	4.149640e+00	2.871586e-01
7.140000e-01	4.137282e+00	2.825031e-01
7.170000e-01	4.124495e+00	2.793041e-01
7.200000e-01	4.111526e+00	2.776968e-01
7.230000e-01	4.098669e+00	2.777711e-01
7.260000e-01	4.086296e+00	2.795660e-01
7.290000e-01	4.075024e+00	2.828363e-01
7.320000e-01	4.064726e+00	2.868209e-01
7.350000e-01	4.055082e+00	2.915290e-01
7.380000e-01	4.046019e+00	2.970314e-01
7.410000e-01	4.037534e+00	3.034021e-01
7.440000e-01	4.029669e+00	3.107198e-01
7.470000e-01	4.022500e+00	3.190624e-01
7.500000e-01	4.016136e+00	3.285142e-01
7.530000e-01	4.010728e+00	3.391639e-01
7.560000e-01	4.006479e+00	3.510949e-01
7.590000e-01	4.003649e+00	3.643730e-01
7.620000e-01	4.002565e+00	3.790362e-01
7.650000e-01	4.003632e+00	3.950738e-01
7.680000e-01	4.007342e+00	4.123924e-01
7.710000e-01	4.014272e+00	4.307719e-01
7.740000e-01	4.025067e+00	4.498080e-01
7.770000e-01	4.040397e+00	4.688448e-01
7.800000e-01	4.060870e+00	4.869061e-01
7.830000e-01	4.086891e+00	5.026514e-01
7.860000e-01	4.118469e+00	5.143923e-01
7.890000e-01	4.154989e+00	5.202212e-01
7.920000e-01	4.195031e+00	5.182896e-01
7.950000e-01	4.236347e+00	5.072195e-01
7.980000e-01	4.276083e+00	4.865437e-01
8.010000e-01	4.311270e+00	4.569879e-01
8.040000e-01	4.339440e+00	4.204269e-01
8.070000e-01	4.359113e+00	3.794922e-01
8.100000e-01	4.369976e+00	3.369893e-01
8.130000e-01	4.372715e+00	2.953693e-01
8.160000e-01	4.368653e+00	2.564202e-01
8.190000e-01	4.359356e+00	2.212058e-01
8.220000e-01	4.346342e+00	1.901718e-01
8.250000e-01	4.330914e+00	1.633218e-01
8.280000e-01	4.314105e+00	1.403884e-01
8.310000e-01	4.296680e+00	1.209676e-01
8.340000e-01	4.279180e+00	1.046095e-01
8.370000e-01	4.261969e+00	9.087258e-02
8.400000e-01	4.245279e+00	7.935225e-02
8.430000e-01	4.229248e+00	6.969227e-02
8.460000e-01	4.213947e+00	6.158703e-02
8.490000e-01	4.199403e+00	5.477855e-02
8.520000e-01	4.185614e+00	4.905132e-02
8.550000e-01	4.172561e+00	4.422639e-02
8.580000e-01	4.160214e+00	4.015570e-02
8.610000e-01	4.148535e+00	3.671690e-02
8.640000e-01	4.137487e+00	3.380893e-02
8.670000e-01	4.127030e+00	3.134820e-02
8.700000e-01	4.117128e+00	2.926548e-02
8.730000e-01	4.107744e+00	2.750329e-02
8.760000e-01	4.098848e+00	2.601382e-02
8.790000e-01	4.090412e+00	2.475714e-02
8.820000e-01	4.082412e+00	2.369985e-02
8.850000e-01	4.074837e+00	2.281386e-02
8.880000e-01	4.067705e+00	2.204494e-02
8.910000e-01	4.060949e+00	2.129883e-02
8.940000e-01	4.054500e+00	2.057050e-02
8.970000e-01	4.048317e+00	1.985981e-02
9.000000e-01	4.042373e+00	1.916657e-02
9.030000e-01	4.036643e+00	1.849053e-02
9.060000e-01	4.031110e+00	1.783143e-02
9.090000e-01	4.025757e+00	1.718901e-02
9.120000e-01	4.020571e+00	1.656298e-02
9.150000e-01	4.015539e+00	1.595305e-02
9.180000e-01	4.010650e+00	1.535894e-02
9.210000e-01	4.005897e+00	1.478036e-02
9.240000e-01	4.001270e+00	1.421702e-02
9.270000e-01	3.996761e+00	1.366864e-02
9.300000e-01	3.992365e+00	1.313492e-02
9.330000e-01	3.988075e+00	1.261560e-02
9.360000e-01	3.983886e+00	1.211041e-02
9.390000e-01	3.979792e+00	1.161906e-02
9.420000e-01	3.975789e+00	1.114129e-02
9.450000e-01	3.971873e+00	1.067685e-02
9.480000e-01	3.968041e+00	1.022548e-02
9.510000e-01	3.964287e+00	9.786926e-03
9.540000e-01	3.960609e+00	9.360948e-03
9.570000e-01	3.957004e+00	8.947305e-03
9.600000e-01	3.953469e+00	8.545764e-03
9.630000e-01	3.950001e+00	8.156096e-03
9.660000e-01	3.946598e+00	7.778077e-03
9.690000e-01	3.943257e+00	7.411488e-03
9.720000e-01	3.939977e+00	7.056117e-03
9.750000e-01	3.936755e+00	6.711755e-03
9.780000e-01	3.933589e+00	6.378199e-03
9.810000e-01	3.930477e+00	6.055250e-03
9.840000e-01	3.927419e+00	5.742713e-03
9.870000e-01	3.924411e+00	5.440400e-03
9.900000e-01	3.921453e+00	5.148126e-03
9.930000e-01	3.918543e+00	4.865710e-03
9.960000e-01	3.915679e+00	4.592977e-03
9.990000e-01	3.912861e+00	4.329753e-03
1.005000e+00	3.907356e+00	3.831169e-03
1.012500e+00	3.900710e+00	3.258526e-03
1.020000e+00	3.894309e+00	2.739858e-03
1.027500e+00	3.888139e+00	2.272905e-03
1.035000e+00	3.882189e+00	1.855535e-03
1.042500e+00	3.876445e+00	1.485737e-03
1.050000e+00	3.870899e+00	1.161614e-03
1.057500e+00	3.865540e+00	8.813716e-04
1.065000e+00	3.860362e+00	6.433162e-04
1.072500e+00	3.855357e+00	4.458446e-04
1.080000e+00	3.850518e+00	2.874393e-04
1.087500e+00	3.845841e+00	1.666630e-04
1.095000e+00	3.841322e+00	8.215257e-05
1.102500e+00	3.836959e+00	3.255455e-05
1.110000e+00	3.832756e+00	7.625866e-06
1.117500e+00	3.828702e+00	0
1.125000e+00	3.824796e+00	0
1.132500e+00	3.821021e+00	0
1.140000e+00	3.817368e+00	0
1.147500e+00	3.813829e+00	0
1.155000e+00	3.810397e+00	0
1.162500e+00	3.807068e+00	0
1.170000e+00	3.803834e+00	0
1.177500e+00	3.800693e+00	0
1.185000e+00	3.797640e+00	0
1.192500e+00	3.794670e+00	0
1.200000e+00	3.791780e+00	0
1.207500e+00	3.788967e+00	0
1.215000e+00	3.786228e+00	0
1.222500e+00	3.783559e+00	0
1.230000e+00	3.780958e+00	0
1.237500e+00	3.778422e+00	0
1.245000e+00	3.775949e+00	0
1.252500e+00	3.773536e+00	0
1.260000e+00	3.771182e+00	0
1.267500e+00	3.768883e+00	0
1.275000e+00	3.766638e+00	0
1.282500e+00	3.764446e+00	0
1.290000e+00	3.762304e+00	0
1.297500e+00	3.760210e+00	0
1.305000e+00	3.758164e+00	0
1.312500e+00	3.756163e+00	0
1.320000e+00	3.754205e+00	0
1.327500e+00	3.752291e+00	0
1.335000e+00	3.750418e+00	0
1.342500e+00	3.748584e+00	0
1.350000e+00	3.746790e+00	0
1.357500e+00	3.745032e+00	0
1.365000e+00	3.743312e+00	0
1.372500e+00	3.741626e+00	0
1.380000e+00	3.739975e+00	0
1.387500e+00	3.738357e+00	0
1.395000e+00	3.736771e+00	0
1.402500e+00	3.735217e+00	0
1.410000e+00	3.733693e+00	0
1.417500e+00	3.732199e+00	0
1.425000e+00	3.730734e+00	0
1.432500e+00	3.729296e+00	0
1.440000e+00	3.727886e+00	0
1.447500e+00	3.726503e+00	0
1.455000e+00	3.725145e+00	0
1.462500e+00	3.723812e+00	0
1.470000e+00	3.722504e+00	0
1.477500e+00	3.721220e+00	0
1.485000e+00	3.719959e+00	0
1.492500e+00	3.718721e+00	0
1.500000e+00	3.717504e+00	0
1.507500e+00	3.716310e+00	0
1.515000e+00	3.715136e+00	0
1.522500e+00	3.713982e+00	0
1.530000e+00	3.712849e+00	0
1.537500e+00	3.711735e+00	0
1.545000e+00	3.710640e+00	0
1.552500e+00	3.709564e+00	0
1.560000e+00	3.708505e+00	0
1.567500e+00	3.707465e+00	0
1.575000e+00	3.706442e+00	0
1.582500e+00	3.705435e+00	0
1.590000e+00	3.704445e+00	0
1.597500e+00	3.703472e+00	0
1.605000e+00	3.702513e+00	0
1.612500e+00	3.701571e+00	0
1.620000e+00	3.700643e+00	0
1.627500e+00	3.699730e+00	0
1.635000e+00	3.698832e+00	0
1.642500e+00	3.697948e+00	0
1.650000e+00	3.697077e+00	0
1.657500e+00	3.696220e+00	0
1.665000e+00	3.695376e+00	0
1.672500e+00	3.694545e+00	0
1.680000e+00	3.693726e+00	0
1.687500e+00	3.692920e+00	0
