Material: organic / C4H8OS - oxathiane / Myers
Optical constants. T. L. Myers, R. G. Tonkyn, T. O. Danby, M. S. Taubman, B. E. Bernacki, J. C. Birnbaum, S. W. Sharpe, T. J. Johnson. Accurate measurement of the optical constants n and k for a series of 57 inorganic and organic liquids for optical modeling and detection, Appl. Spectrosc. 72, 535-550 (2018) (see Supplemental Material for numerical data)
Comments: 1,4-Oxathiane, 26 Â°C
Specs: {"n_absolute": true, "wavelength_vacuum": true, "temperature": "26 Â°C"}
wavelength (um)	n	k
1.28246E+00	1.48896E+00	1.11870E-06
1.28556E+00	1.48896E+00	1.25370E-06
1.28868E+00	1.48896E+00	1.19160E-06
1.29181E+00	1.48896E+00	1.44340E-06
1.29495E+00	1.48895E+00	1.84710E-06
1.29812E+00	1.48895E+00	1.82530E-06
1.30129E+00	1.48895E+00	2.00280E-06
1.30448E+00	1.48894E+00	2.63030E-06
1.30769E+00	1.48894E+00	2.79320E-06
1.31091E+00	1.48894E+00	2.64330E-06
1.31415E+00	1.48894E+00	2.41870E-06
1.31741E+00	1.48893E+00	2.25090E-06
1.32068E+00	1.48893E+00	1.92860E-06
1.32397E+00	1.48893E+00	1.88070E-06
1.32727E+00	1.48892E+00	1.81290E-06
1.33059E+00	1.48892E+00	2.21580E-06
1.33393E+00	1.48892E+00	2.68620E-06
1.33728E+00	1.48891E+00	2.63830E-06
1.34066E+00	1.48891E+00	2.53660E-06
1.34404E+00	1.48891E+00	2.34220E-06
1.34745E+00	1.48890E+00	2.28340E-06
1.35087E+00	1.48890E+00	2.65230E-06
1.35431E+00	1.48889E+00	2.94600E-06
1.35777E+00	1.48889E+00	3.02560E-06
1.36124E+00	1.48889E+00	3.03220E-06
1.36474E+00	1.48888E+00	3.12860E-06
1.36825E+00	1.48888E+00	4.02720E-06
1.37178E+00	1.48887E+00	5.58320E-06
1.37533E+00	1.48887E+00	7.95310E-06
1.37889E+00	1.48887E+00	9.12170E-06
1.38248E+00	1.48887E+00	8.90420E-06
1.38608E+00	1.48886E+00	9.41410E-06
1.38970E+00	1.48886E+00	9.54110E-06
1.39334E+00	1.48886E+00	9.96790E-06
1.39700E+00	1.48885E+00	9.31910E-06
1.40068E+00	1.48885E+00	8.95790E-06
1.40438E+00	1.48885E+00	9.01040E-06
1.40810E+00	1.48884E+00	9.12290E-06
1.41184E+00	1.48884E+00	9.35830E-06
1.41559E+00	1.48884E+00	9.27120E-06
1.41937E+00	1.48883E+00	8.91850E-06
1.42317E+00	1.48883E+00	8.84400E-06
1.42699E+00	1.48882E+00	8.72650E-06
1.43083E+00	1.48882E+00	8.20040E-06
1.43469E+00	1.48882E+00	7.77730E-06
1.43857E+00	1.48881E+00	7.76440E-06
1.44247E+00	1.48881E+00	7.67830E-06
1.44639E+00	1.48880E+00	7.06570E-06
1.45034E+00	1.48880E+00	6.62850E-06
1.45430E+00	1.48880E+00	6.51720E-06
1.45829E+00	1.48879E+00	6.13280E-06
1.46230E+00	1.48879E+00	6.16030E-06
1.46633E+00	1.48878E+00	5.77860E-06
1.47039E+00	1.48878E+00	5.17120E-06
1.47446E+00	1.48877E+00	5.08340E-06
1.47856E+00	1.48877E+00	4.99120E-06
1.48269E+00	1.48876E+00	5.12820E-06
1.48683E+00	1.48876E+00	5.55720E-06
1.49100E+00	1.48875E+00	5.25160E-06
1.49519E+00	1.48875E+00	4.96420E-06
1.49941E+00	1.48874E+00	4.89540E-06
1.50365E+00	1.48874E+00	4.33160E-06
1.50791E+00	1.48873E+00	3.69920E-06
1.51220E+00	1.48873E+00	3.25050E-06
1.51651E+00	1.48872E+00	2.95410E-06
1.52085E+00	1.48872E+00	2.88860E-06
1.52521E+00	1.48871E+00	2.94140E-06
1.52959E+00	1.48870E+00	3.01440E-06
1.53401E+00	1.48870E+00	3.16190E-06
1.53844E+00	1.48869E+00	2.99660E-06
1.54291E+00	1.48869E+00	2.75840E-06
1.54740E+00	1.48868E+00	2.60120E-06
1.55191E+00	1.48868E+00	2.49300E-06
1.55645E+00	1.48867E+00	2.26290E-06
1.56102E+00	1.48866E+00	1.98340E-06
1.56562E+00	1.48866E+00	1.89210E-06
1.57024E+00	1.48865E+00	1.88850E-06
1.57489E+00	1.48864E+00	1.78130E-06
1.57957E+00	1.48864E+00	1.69740E-06
1.58427E+00	1.48863E+00	1.89170E-06
1.58901E+00	1.48862E+00	1.83360E-06
1.59377E+00	1.48862E+00	1.85070E-06
1.59856E+00	1.48861E+00	1.92650E-06
1.60338E+00	1.48860E+00	1.88930E-06
1.60823E+00	1.48859E+00	1.86170E-06
1.61310E+00	1.48859E+00	1.79630E-06
1.61801E+00	1.48858E+00	1.60370E-06
1.62295E+00	1.48857E+00	1.62770E-06
1.62792E+00	1.48856E+00	1.77660E-06
1.63292E+00	1.48855E+00	1.94640E-06
1.63794E+00	1.48854E+00	2.18850E-06
1.64300E+00	1.48853E+00	2.34950E-06
1.64810E+00	1.48852E+00	2.47080E-06
1.65322E+00	1.48851E+00	2.48390E-06
1.65837E+00	1.48850E+00	2.81150E-06
1.66356E+00	1.48849E+00	3.42450E-06
1.66878E+00	1.48847E+00	4.76380E-06
1.67403E+00	1.48846E+00	6.97280E-06
1.67932E+00	1.48844E+00	1.01760E-05
1.68464E+00	1.48842E+00	1.74980E-05
1.68999E+00	1.48839E+00	3.58820E-05
1.69538E+00	1.48837E+00	7.55910E-05
1.70080E+00	1.48840E+00	1.16860E-04
1.70626E+00	1.48842E+00	9.54050E-05
1.71175E+00	1.48840E+00	9.63240E-05
1.71728E+00	1.48839E+00	1.16970E-04
1.72284E+00	1.48840E+00	1.33310E-04
1.72844E+00	1.48840E+00	1.37170E-04
1.73408E+00	1.48840E+00	1.54220E-04
1.73975E+00	1.48840E+00	1.70110E-04
1.74546E+00	1.48843E+00	1.97520E-04
1.75121E+00	1.48848E+00	1.74870E-04
1.75699E+00	1.48847E+00	1.40240E-04
1.76282E+00	1.48849E+00	1.45150E-04
1.76868E+00	1.48850E+00	1.02340E-04
1.77458E+00	1.48848E+00	6.72750E-05
1.78052E+00	1.48845E+00	5.39270E-05
1.78650E+00	1.48843E+00	4.74240E-05
1.79252E+00	1.48841E+00	4.58950E-05
1.79859E+00	1.48840E+00	4.56090E-05
1.80469E+00	1.48839E+00	4.60180E-05
1.81083E+00	1.48838E+00	4.53350E-05
1.81702E+00	1.48837E+00	4.22470E-05
1.82325E+00	1.48835E+00	3.81560E-05
1.82952E+00	1.48834E+00	3.43260E-05
1.83584E+00	1.48833E+00	3.30490E-05
1.84220E+00	1.48831E+00	3.24990E-05
1.84860E+00	1.48830E+00	3.20790E-05
1.85505E+00	1.48829E+00	3.27590E-05
1.86154E+00	1.48827E+00	3.40020E-05
1.86808E+00	1.48826E+00	3.48950E-05
1.87466E+00	1.48825E+00	3.49300E-05
1.88130E+00	1.48824E+00	3.49740E-05
1.88797E+00	1.48823E+00	3.46010E-05
1.89470E+00	1.48822E+00	3.40200E-05
1.90147E+00	1.48820E+00	3.32660E-05
1.90830E+00	1.48819E+00	3.25790E-05
1.91517E+00	1.48818E+00	3.14650E-05
1.92209E+00	1.48816E+00	3.07500E-05
1.92906E+00	1.48815E+00	2.98680E-05
1.93609E+00	1.48814E+00	2.87320E-05
1.94316E+00	1.48812E+00	2.82590E-05
1.95029E+00	1.48811E+00	2.75110E-05
1.95746E+00	1.48809E+00	2.66500E-05
1.96469E+00	1.48808E+00	2.61840E-05
1.97198E+00	1.48806E+00	2.55270E-05
1.97932E+00	1.48805E+00	2.44540E-05
1.98671E+00	1.48803E+00	2.37670E-05
1.99416E+00	1.48801E+00	2.33370E-05
2.00167E+00	1.48800E+00	2.36540E-05
2.00923E+00	1.48798E+00	2.47740E-05
2.01685E+00	1.48796E+00	2.59450E-05
2.02453E+00	1.48794E+00	2.69160E-05
2.03226E+00	1.48793E+00	2.75280E-05
2.04006E+00	1.48791E+00	2.81450E-05
2.04792E+00	1.48789E+00	2.87600E-05
2.05583E+00	1.48787E+00	2.89130E-05
2.06381E+00	1.48785E+00	2.86840E-05
2.07185E+00	1.48783E+00	2.75610E-05
2.07995E+00	1.48781E+00	2.71210E-05
2.08812E+00	1.48779E+00	2.69870E-05
2.09635E+00	1.48777E+00	2.63170E-05
2.10465E+00	1.48775E+00	2.61560E-05
2.11301E+00	1.48772E+00	2.55390E-05
2.12144E+00	1.48770E+00	2.46620E-05
2.12993E+00	1.48767E+00	2.39190E-05
2.13850E+00	1.48765E+00	2.28160E-05
2.14713E+00	1.48762E+00	2.19630E-05
2.15583E+00	1.48759E+00	2.22940E-05
2.16461E+00	1.48756E+00	2.36090E-05
2.17346E+00	1.48752E+00	2.56420E-05
2.18237E+00	1.48749E+00	2.75590E-05
2.19137E+00	1.48745E+00	2.86470E-05
2.20043E+00	1.48741E+00	2.99920E-05
2.20958E+00	1.48737E+00	3.29900E-05
2.21879E+00	1.48732E+00	3.91000E-05
2.22809E+00	1.48726E+00	4.82300E-05
2.23746E+00	1.48720E+00	6.02070E-05
2.24692E+00	1.48713E+00	8.19730E-05
2.25645E+00	1.48703E+00	1.12750E-04
2.26606E+00	1.48692E+00	1.99270E-04
2.27576E+00	1.48683E+00	3.53450E-04
2.28554E+00	1.48682E+00	5.60050E-04
2.29541E+00	1.48693E+00	9.26070E-04
2.30536E+00	1.48742E+00	7.71320E-04
2.31539E+00	1.48742E+00	5.29960E-04
2.32552E+00	1.48735E+00	4.08150E-04
2.33573E+00	1.48721E+00	4.04750E-04
2.34603E+00	1.48727E+00	4.74950E-04
2.35643E+00	1.48723E+00	3.87940E-04
2.36692E+00	1.48715E+00	3.65330E-04
2.37750E+00	1.48703E+00	4.33310E-04
2.38817E+00	1.48714E+00	5.10650E-04
2.39895E+00	1.48713E+00	4.56650E-04
2.40982E+00	1.48710E+00	4.57450E-04
2.42078E+00	1.48712E+00	4.90380E-04
2.43185E+00	1.48717E+00	3.99580E-04
2.44302E+00	1.48700E+00	2.94160E-04
2.45430E+00	1.48693E+00	4.20480E-04
2.46568E+00	1.48695E+00	4.61380E-04
2.47716E+00	1.48696E+00	3.65520E-04
2.48875E+00	1.48683E+00	4.02600E-04
2.50046E+00	1.48684E+00	4.26090E-04
2.51227E+00	1.48676E+00	3.64520E-04
2.52419E+00	1.48660E+00	5.46360E-04
2.53623E+00	1.48678E+00	5.01410E-04
2.54838E+00	1.48670E+00	6.34620E-04
2.56065E+00	1.48685E+00	5.65950E-04
2.57304E+00	1.48684E+00	4.86640E-04
2.58555E+00	1.48684E+00	3.52440E-04
2.59818E+00	1.48674E+00	2.99500E-04
2.61094E+00	1.48663E+00	2.05590E-04
2.62382E+00	1.48649E+00	2.08900E-04
2.63683E+00	1.48639E+00	2.44130E-04
2.64997E+00	1.48635E+00	2.62610E-04
2.66324E+00	1.48630E+00	2.08800E-04
2.67664E+00	1.48616E+00	1.77940E-04
2.69018E+00	1.48605E+00	2.17560E-04
2.70386E+00	1.48597E+00	1.67030E-04
2.71767E+00	1.48580E+00	1.99270E-04
2.73163E+00	1.48567E+00	2.29910E-04
2.74573E+00	1.48555E+00	2.66670E-04
2.75998E+00	1.48541E+00	3.32890E-04
2.77438E+00	1.48530E+00	4.18270E-04
2.78893E+00	1.48518E+00	4.73360E-04
2.80363E+00	1.48509E+00	5.35260E-04
2.81849E+00	1.48489E+00	6.10450E-04
2.83351E+00	1.48470E+00	8.17620E-04
2.84869E+00	1.48473E+00	1.11920E-03
2.86403E+00	1.48478E+00	1.24770E-03
2.87953E+00	1.48484E+00	1.41590E-03
2.89521E+00	1.48505E+00	1.50600E-03
2.91106E+00	1.48526E+00	1.37470E-03
2.92708E+00	1.48528E+00	1.13060E-03
2.94328E+00	1.48518E+00	9.44420E-04
2.95966E+00	1.48506E+00	7.65010E-04
2.97622E+00	1.48483E+00	6.09740E-04
2.99297E+00	1.48458E+00	5.18320E-04
3.00991E+00	1.48432E+00	4.44440E-04
3.02704E+00	1.48403E+00	4.42660E-04
3.04437E+00	1.48380E+00	3.95510E-04
3.06189E+00	1.48345E+00	3.04350E-04
3.07963E+00	1.48306E+00	3.13100E-04
3.09756E+00	1.48266E+00	3.35170E-04
3.11571E+00	1.48226E+00	4.30710E-04
3.13407E+00	1.48189E+00	4.68960E-04
3.15265E+00	1.48141E+00	4.69500E-04
3.17145E+00	1.48092E+00	4.70130E-04
3.19047E+00	1.48023E+00	4.01830E-04
3.20973E+00	1.47939E+00	4.64650E-04
3.22922E+00	1.47846E+00	5.18270E-04
3.24895E+00	1.47725E+00	5.93890E-04
3.26892E+00	1.47573E+00	8.06650E-04
3.28913E+00	1.47384E+00	1.08690E-03
3.30960E+00	1.47115E+00	1.53080E-03
3.33033E+00	1.46710E+00	2.41710E-03
3.35131E+00	1.45993E+00	4.60030E-03
3.37256E+00	1.44543E+00	1.78210E-02
3.39409E+00	1.46022E+00	5.19910E-02
3.41589E+00	1.48308E+00	3.24530E-02
3.43797E+00	1.49958E+00	5.19320E-02
3.46034E+00	1.50266E+00	2.63940E-02
3.48300E+00	1.48615E+00	1.74450E-02
3.50596E+00	1.50268E+00	6.20810E-02
3.52923E+00	1.52312E+00	1.31890E-02
3.55280E+00	1.51012E+00	7.12250E-03
3.57670E+00	1.50694E+00	3.57850E-03
3.60092E+00	1.50175E+00	1.87930E-03
3.62546E+00	1.49836E+00	3.36660E-03
3.65035E+00	1.49901E+00	2.10930E-03
3.67558E+00	1.49546E+00	2.65350E-03
3.70115E+00	1.49663E+00	3.81810E-03
3.72709E+00	1.49854E+00	2.31640E-03
3.75340E+00	1.49635E+00	9.15260E-04
3.78007E+00	1.49515E+00	7.41210E-04
3.80713E+00	1.49466E+00	9.67460E-04
3.83458E+00	1.49391E+00	4.85890E-04
3.86243E+00	1.49335E+00	4.65980E-04
3.89069E+00	1.49271E+00	4.22810E-04
3.91936E+00	1.49236E+00	3.65890E-04
3.94846E+00	1.49192E+00	3.52790E-04
3.97800E+00	1.49162E+00	3.33740E-04
4.00797E+00	1.49119E+00	3.19550E-04
4.03841E+00	1.49079E+00	3.28940E-04
4.06931E+00	1.49049E+00	5.87160E-04
4.10069E+00	1.49035E+00	4.00350E-04
4.13255E+00	1.48998E+00	5.70390E-04
4.16491E+00	1.48978E+00	5.45120E-04
4.19779E+00	1.48965E+00	1.02640E-03
4.23118E+00	1.48992E+00	1.04440E-03
4.26512E+00	1.48971E+00	3.66070E-04
4.29960E+00	1.48938E+00	3.82490E-04
4.33464E+00	1.48914E+00	3.32670E-04
4.37026E+00	1.48866E+00	2.22460E-04
4.40647E+00	1.48839E+00	5.67550E-04
4.44329E+00	1.48809E+00	4.80640E-04
4.48072E+00	1.48762E+00	5.52100E-04
4.51879E+00	1.48832E+00	2.17660E-03
4.55752E+00	1.48860E+00	1.06300E-03
4.59691E+00	1.48825E+00	4.72760E-04
4.63699E+00	1.48768E+00	3.50010E-04
4.67778E+00	1.48751E+00	5.00160E-04
4.71929E+00	1.48682E+00	4.28950E-04
4.76154E+00	1.48764E+00	1.58410E-03
4.80455E+00	1.48732E+00	4.61420E-04
4.84835E+00	1.48688E+00	2.62010E-04
4.89296E+00	1.48653E+00	3.95210E-04
4.93840E+00	1.48619E+00	3.96650E-04
4.98468E+00	1.48601E+00	4.97880E-04
5.03184E+00	1.48554E+00	4.48090E-04
5.07991E+00	1.48536E+00	7.15790E-04
5.12890E+00	1.48483E+00	8.37070E-04
5.17884E+00	1.48279E+00	1.92890E-03
5.22977E+00	1.48693E+00	1.63850E-03
5.28171E+00	1.48584E+00	4.02030E-04
5.33469E+00	1.48493E+00	4.01810E-04
5.38874E+00	1.48442E+00	4.08080E-04
5.44390E+00	1.48374E+00	5.50120E-04
5.50020E+00	1.48416E+00	1.17840E-03
5.55768E+00	1.48389E+00	4.45880E-04
5.61637E+00	1.48312E+00	3.80100E-04
5.67631E+00	1.48270E+00	3.07680E-04
5.73755E+00	1.48204E+00	3.02850E-04
5.80013E+00	1.48147E+00	6.44090E-04
5.86408E+00	1.48126E+00	4.69770E-04
5.92946E+00	1.48050E+00	4.97230E-04
5.99631E+00	1.47959E+00	7.30770E-04
6.06469E+00	1.47911E+00	1.44370E-03
6.13465E+00	1.47881E+00	1.05040E-03
6.20624E+00	1.47786E+00	1.02040E-03
6.27952E+00	1.47711E+00	4.26290E-04
6.35455E+00	1.47558E+00	3.58990E-04
6.43139E+00	1.47399E+00	5.75660E-04
6.51012E+00	1.47191E+00	7.62820E-04
6.59080E+00	1.46955E+00	1.00270E-03
6.67350E+00	1.46612E+00	1.64760E-03
6.75831E+00	1.45989E+00	2.88760E-03
6.84530E+00	1.43990E+00	1.60280E-02
6.93455E+00	1.47581E+00	1.93660E-02
7.02617E+00	1.44649E+00	2.93920E-02
7.12023E+00	1.49392E+00	1.62850E-02
7.21686E+00	1.47054E+00	3.03840E-02
7.31613E+00	1.48251E+00	7.09100E-03
7.41818E+00	1.47224E+00	6.75280E-03
7.52312E+00	1.45517E+00	8.85860E-03
7.63107E+00	1.46988E+00	1.74210E-02
7.74216E+00	1.39732E+00	3.42210E-02
7.85653E+00	1.53744E+00	2.53370E-02
7.97433E+00	1.50430E+00	1.03900E-02
8.09572E+00	1.48430E+00	5.55730E-03
8.22086E+00	1.45753E+00	2.25280E-02
8.34993E+00	1.50255E+00	3.69440E-02
8.48312E+00	1.46807E+00	9.07220E-03
8.62063E+00	1.49554E+00	1.39120E-02
8.76267E+00	1.45969E+00	5.95390E-03
8.90946E+00	1.41295E+00	1.30230E-02
9.06126E+00	1.40293E+00	4.91400E-01
9.21832E+00	1.57889E+00	2.26580E-02
9.38092E+00	1.52619E+00	1.07760E-02
9.54937E+00	1.49622E+00	3.31700E-02
9.72397E+00	1.48828E+00	1.09630E-02
9.90507E+00	1.40244E+00	8.52710E-02
1.00931E+01	1.55827E+00	3.67670E-02
1.02883E+01	1.48869E+00	3.47690E-02
1.04913E+01	1.55386E+00	1.72760E-02
1.07024E+01	1.53300E+00	3.83660E-03
1.09222E+01	1.52122E+00	1.60700E-03
1.11512E+01	1.51306E+00	1.57930E-03
1.13900E+01	1.50453E+00	1.54570E-03
1.16393E+01	1.49569E+00	4.21800E-03
1.18997E+01	1.47245E+00	7.62320E-03
1.21721E+01	1.61743E+00	1.02020E-01
1.24572E+01	1.55613E+00	2.11520E-02
1.27560E+01	1.52804E+00	3.55150E-03
1.30694E+01	1.51963E+00	2.87420E-03
1.33987E+01	1.51469E+00	3.22990E-03
1.37450E+01	1.51219E+00	1.80620E-03
1.41097E+01	1.50618E+00	1.53230E-03
1.44942E+01	1.51162E+00	1.49780E-02
1.49003E+01	1.49141E+00	7.95000E-03
1.53298E+01	1.52276E+00	6.41220E-03
1.57848E+01	1.51008E+00	1.63900E-03
1.62676E+01	1.50453E+00	2.04920E-03
1.67809E+01	1.49829E+00	2.32330E-03
1.73276E+01	1.48484E+00	5.47410E-03
1.79112E+01	1.43386E+00	1.14390E-01
1.85354E+01	1.53873E+00	6.57010E-03
1.92048E+01	1.52225E+00	3.10620E-03
1.99242E+01	1.51630E+00	2.54750E-03
2.06997E+01	1.51234E+00	2.92290E-03
2.15380E+01	1.51081E+00	3.88460E-03
2.24471E+01	1.50741E+00	4.70000E-03
2.34363E+01	1.50572E+00	9.81690E-03
2.45167E+01	1.51351E+00	2.57510E-02
