Material: inorganic / Te / Guo-o
Optical constants. Z. Guo, H. Gu, M. Fang, L. Yed, S. Liu, Giant in-plane optical and electronic anisotropy of tellurene: a quantitative exploration, Nanoscale, 14, 12238â€“12246 (2022) (Numerical data kindly provided by Zhengfeng Guo)
Comments: Tellurene. Ordinary ray (o).
wavelength (um)	n	k
0.400	1.06337	2.15703	0.405	1.08186	2.18582	0.410	1.10076	2.21468	0.415	1.12006	2.24363	0.420	1.13982	2.27265	0.425	1.16004	2.30176	0.430	1.18077	2.33093	0.435	1.20203	2.36019	0.440	1.22385	2.38950	0.445	1.24627	2.41887	0.450	1.26931	2.44828	0.455	1.29302	2.47771	0.460	1.31743	2.50715	0.465	1.34257	2.53659	0.470	1.36849	2.56598	0.475	1.39521	2.59531	0.480	1.42278	2.62454	0.485	1.45123	2.65363	0.490	1.48059	2.68255	0.495	1.51091	2.71125	0.500	1.54222	2.73967	0.505	1.57454	2.76777	0.510	1.60791	2.79548	0.515	1.64236	2.82274	0.520	1.67790	2.84946	0.525	1.71455	2.87559	0.530	1.75233	2.90102	0.532	1.76854	2.91148	0.535	1.79124	2.92568	0.540	1.83129	2.94948	0.545	1.87245	2.97231	0.550	1.91472	2.99408	0.555	1.95807	3.01468	0.560	2.00245	3.03401	0.565	2.04783	3.05197	0.570	2.09413	3.06845	0.575	2.14128	3.08334	0.580	2.18920	3.09656	0.585	2.23779	3.10801	0.590	2.28693	3.11759	0.595	2.33651	3.12525	0.600	2.38639	3.13091	0.605	2.43642	3.13452	0.610	2.48645	3.13604	0.615	2.53633	3.13546	0.620	2.58589	3.13276	0.625	2.63497	3.12797	0.630	2.68341	3.12111	0.635	2.73104	3.11223	0.640	2.77772	3.10140	0.645	2.82329	3.08870	0.650	2.86762	3.07424	0.655	2.91058	3.05811	0.660	2.95207	3.04045	0.665	2.99199	3.02140	0.670	3.03026	3.00108	0.675	3.06682	2.97965	0.680	3.10163	2.95725	0.685	3.13465	2.93404	0.690	3.16586	2.91015	0.695	3.19528	2.88574	0.700	3.22292	2.86094	0.705	3.24880	2.83587	0.710	3.27295	2.81067	0.715	3.29544	2.78545	0.720	3.31631	2.76032	0.725	3.33562	2.73536	0.730	3.35345	2.71067	0.735	3.36985	2.68632	0.740	3.38492	2.66238	0.745	3.39871	2.63891	0.750	3.41131	2.61596	0.755	3.42279	2.59357	0.760	3.43322	2.57178	0.765	3.44268	2.55061	0.770	3.45124	2.53008	0.775	3.45896	2.51021	0.780	3.46591	2.49101	0.785	3.47216	2.47249	0.790	3.47775	2.45464	0.795	3.48276	2.43746	0.800	3.48723	2.42096	0.805	3.49120	2.40512	0.810	3.49474	2.38994	0.815	3.49788	2.37539	0.820	3.50065	2.36148	0.825	3.50311	2.34818	0.830	3.50528	2.33547	0.835	3.50720	2.32336	0.840	3.50890	2.31180	0.845	3.51040	2.30080	0.850	3.51173	2.29033	0.855	3.51291	2.28038	0.860	3.51397	2.27092	0.865	3.51493	2.26195	0.870	3.51579	2.25343	0.875	3.51659	2.24537	0.880	3.51733	2.23773	0.885	3.51802	2.23051	0.890	3.51869	2.22368	0.895	3.51934	2.21724	0.900	3.51998	2.21116
