Material: main / ZnO / Aguilar
Optical constants. O. Aguilar, S. de Castro, M. P. F. Godoy, M. R. S. Dias. Optoelectronic characterization of Zn1-xCdxO thin films as an alternative to photonic crystals in organic solar cells, Opt. Mater. Express 9, 3638-3648 (2019) (Numerical data kindly provided by Mariama Rebello de Sousa Dias)
Comments: ZnO thin film.
wavelength (um)	n	k
0.300	1.8403E+00	1.9634E-01
0.310	1.8179E+00	1.9401E-01
0.320	1.7997E+00	2.0771E-01
0.330	1.8001E+00	2.3328E-01
0.340	1.8250E+00	2.5284E-01
0.350	1.8625E+00	2.5023E-01
0.360	1.8938E+00	2.2516E-01
0.370	1.9086E+00	1.8918E-01
0.380	1.9074E+00	1.5440E-01
0.390	1.8964E+00	1.2725E-01
0.400	1.8821E+00	1.0866E-01
0.410	1.8681E+00	9.6667E-02
0.420	1.8562E+00	8.8828E-02
0.430	1.8463E+00	8.3303E-02
0.440	1.8383E+00	7.8999E-02
0.450	1.8315E+00	7.5357E-02
0.460	1.8257E+00	7.2114E-02
0.470	1.8206E+00	6.9153E-02
0.480	1.8160E+00	6.6416E-02
0.490	1.8119E+00	6.3875E-02
0.500	1.8081E+00	6.1508E-02
0.510	1.8046E+00	5.9299E-02
0.520	1.8013E+00	5.7235E-02
0.530	1.7983E+00	5.5304E-02
0.540	1.7955E+00	5.3495E-02
0.550	1.7929E+00	5.1797E-02
0.560	1.7904E+00	5.0203E-02
0.570	1.7881E+00	4.8704E-02
0.580	1.7859E+00	4.7292E-02
0.590	1.7838E+00	4.5961E-02
0.600	1.7818E+00	4.4705E-02
0.610	1.7800E+00	4.3519E-02
0.620	1.7782E+00	4.2397E-02
0.630	1.7765E+00	4.1334E-02
0.640	1.7749E+00	4.0327E-02
0.650	1.7734E+00	3.9372E-02
0.660	1.7719E+00	3.8465E-02
0.670	1.7706E+00	3.7603E-02
0.680	1.7692E+00	3.6783E-02
0.690	1.7680E+00	3.6002E-02
0.700	1.7668E+00	3.5259E-02
0.710	1.7656E+00	3.4549E-02
0.720	1.7645E+00	3.3872E-02
0.730	1.7635E+00	3.3226E-02
0.740	1.7624E+00	3.2608E-02
0.750	1.7615E+00	3.2017E-02
0.760	1.7605E+00	3.1451E-02
0.770	1.7596E+00	3.0909E-02
0.780	1.7588E+00	3.0390E-02
0.790	1.7579E+00	2.9893E-02
0.800	1.7571E+00	2.9415E-02
0.810	1.7564E+00	2.8956E-02
0.820	1.7556E+00	2.8516E-02
0.830	1.7549E+00	2.8093E-02
0.840	1.7542E+00	2.7685E-02
0.850	1.7535E+00	2.7294E-02
0.860	1.7529E+00	2.6917E-02
0.870	1.7523E+00	2.6554E-02
0.880	1.7517E+00	2.6204E-02
0.890	1.7511E+00	2.5867E-02
0.900	1.7506E+00	2.5542E-02
0.910	1.7500E+00	2.5228E-02
0.920	1.7495E+00	2.4925E-02
0.930	1.7490E+00	2.4633E-02
0.940	1.7485E+00	2.4351E-02
0.950	1.7480E+00	2.4078E-02
0.960	1.7476E+00	2.3814E-02
0.970	1.7471E+00	2.3559E-02
0.980	1.7467E+00	2.3313E-02
0.990	1.7463E+00	2.3074E-02
1.000	1.7459E+00	2.2843E-02
1.010	1.7455E+00	2.2620E-02
1.020	1.7451E+00	2.2403E-02
1.030	1.7447E+00	2.2194E-02
1.040	1.7443E+00	2.1991E-02
1.050	1.7440E+00	2.1794E-02
1.060	1.7437E+00	2.1603E-02
1.070	1.7433E+00	2.1418E-02
1.080	1.7430E+00	2.1238E-02
1.090	1.7427E+00	2.1064E-02
1.100	1.7424E+00	2.0895E-02
1.110	1.7421E+00	2.0731E-02
1.120	1.7418E+00	2.0571E-02
1.130	1.7415E+00	2.0417E-02
1.140	1.7412E+00	2.0267E-02
1.150	1.7410E+00	2.0121E-02
1.160	1.7407E+00	1.9979E-02
1.170	1.7405E+00	1.9841E-02
1.180	1.7402E+00	1.9707E-02
1.190	1.7400E+00	1.9577E-02
1.200	1.7397E+00	1.9451E-02
1.210	1.7395E+00	1.9328E-02
1.220	1.7393E+00	1.9208E-02
1.230	1.7391E+00	1.9092E-02
1.240	1.7389E+00	1.8979E-02
1.250	1.7387E+00	1.8869E-02
1.260	1.7385E+00	1.8762E-02
1.270	1.7383E+00	1.8658E-02
1.280	1.7381E+00	1.8556E-02
1.290	1.7379E+00	1.8458E-02
1.300	1.7377E+00	1.8362E-02
1.310	1.7375E+00	1.8268E-02
1.320	1.7373E+00	1.8177E-02
1.330	1.7372E+00	1.8089E-02
1.340	1.7370E+00	1.8003E-02
1.350	1.7368E+00	1.7919E-02
1.360	1.7367E+00	1.7837E-02
1.370	1.7365E+00	1.7758E-02
1.380	1.7364E+00	1.7680E-02
1.390	1.7362E+00	1.7605E-02
1.400	1.7361E+00	1.7531E-02
1.410	1.7359E+00	1.7460E-02
1.420	1.7358E+00	1.7390E-02
1.430	1.7356E+00	1.7323E-02
1.440	1.7355E+00	1.7257E-02
1.450	1.7354E+00	1.7192E-02
1.460	1.7352E+00	1.7130E-02
1.470	1.7351E+00	1.7069E-02
1.480	1.7350E+00	1.7009E-02
1.490	1.7349E+00	1.6952E-02
1.500	1.7347E+00	1.6895E-02
1.510	1.7346E+00	1.6841E-02
1.520	1.7345E+00	1.6787E-02
1.530	1.7344E+00	1.6735E-02
1.540	1.7343E+00	1.6685E-02
1.550	1.7342E+00	1.6635E-02
1.560	1.7341E+00	1.6588E-02
1.570	1.7340E+00	1.6541E-02
1.580	1.7339E+00	1.6496E-02
1.590	1.7338E+00	1.6452E-02
1.600	1.7337E+00	1.6409E-02
1.610	1.7336E+00	1.6367E-02
1.620	1.7335E+00	1.6326E-02
1.630	1.7334E+00	1.6287E-02
1.640	1.7333E+00	1.6248E-02
1.650	1.7332E+00	1.6211E-02
1.660	1.7331E+00	1.6175E-02
1.670	1.7330E+00	1.6139E-02
1.680	1.7329E+00	1.6105E-02
1.690	1.7329E+00	1.6072E-02
1.700	1.7328E+00	1.6039E-02
1.710	1.7327E+00	1.6008E-02
1.720	1.7326E+00	1.5978E-02
1.730	1.7325E+00	1.5948E-02
1.740	1.7325E+00	1.5919E-02
1.750	1.7324E+00	1.5891E-02
1.760	1.7323E+00	1.5864E-02
1.770	1.7322E+00	1.5838E-02
1.780	1.7322E+00	1.5813E-02
1.790	1.7321E+00	1.5788E-02
1.800	1.7320E+00	1.5764E-02
1.810	1.7320E+00	1.5741E-02
1.820	1.7319E+00	1.5719E-02
1.830	1.7318E+00	1.5697E-02
1.840	1.7318E+00	1.5677E-02
1.850	1.7317E+00	1.5656E-02
1.860	1.7316E+00	1.5637E-02
1.870	1.7316E+00	1.5618E-02
1.880	1.7315E+00	1.5600E-02
1.890	1.7315E+00	1.5583E-02
1.900	1.7314E+00	1.5566E-02
1.910	1.7313E+00	1.5550E-02
1.920	1.7313E+00	1.5534E-02
1.930	1.7312E+00	1.5519E-02
1.940	1.7312E+00	1.5505E-02
1.950	1.7311E+00	1.5491E-02
1.960	1.7311E+00	1.5478E-02
1.970	1.7310E+00	1.5465E-02
1.980	1.7310E+00	1.5453E-02
1.990	1.7309E+00	1.5441E-02
2.000	1.7309E+00	1.5430E-02
2.010	1.7308E+00	1.5420E-02
2.020	1.7308E+00	1.5410E-02
2.030	1.7307E+00	1.5401E-02
2.040	1.7307E+00	1.5392E-02
2.050	1.7306E+00	1.5383E-02
2.060	1.7306E+00	1.5375E-02
2.070	1.7305E+00	1.5368E-02
2.080	1.7305E+00	1.5361E-02
2.090	1.7304E+00	1.5354E-02
2.100	1.7304E+00	1.5348E-02
2.110	1.7304E+00	1.5342E-02
2.120	1.7303E+00	1.5337E-02
2.130	1.7303E+00	1.5332E-02
2.140	1.7302E+00	1.5328E-02
2.150	1.7302E+00	1.5324E-02
2.160	1.7302E+00	1.5320E-02
2.170	1.7301E+00	1.5317E-02
2.180	1.7301E+00	1.5314E-02
2.190	1.7300E+00	1.5312E-02
2.200	1.7300E+00	1.5310E-02
2.210	1.7300E+00	1.5308E-02
2.220	1.7299E+00	1.5307E-02
2.230	1.7299E+00	1.5306E-02
2.240	1.7299E+00	1.5305E-02
2.250	1.7298E+00	1.5305E-02
2.260	1.7298E+00	1.5305E-02
2.270	1.7298E+00	1.5306E-02
2.280	1.7297E+00	1.5306E-02
2.290	1.7297E+00	1.5308E-02
2.300	1.7297E+00	1.5309E-02
2.310	1.7296E+00	1.5311E-02
2.320	1.7296E+00	1.5313E-02
2.330	1.7296E+00	1.5316E-02
2.340	1.7295E+00	1.5318E-02
2.350	1.7295E+00	1.5322E-02
2.360	1.7295E+00	1.5325E-02
2.370	1.7294E+00	1.5329E-02
2.380	1.7294E+00	1.5333E-02
2.390	1.7294E+00	1.5337E-02
2.400	1.7293E+00	1.5341E-02
2.410	1.7293E+00	1.5346E-02
2.420	1.7293E+00	1.5351E-02
2.430	1.7293E+00	1.5357E-02
2.440	1.7292E+00	1.5362E-02
2.450	1.7292E+00	1.5368E-02
2.460	1.7292E+00	1.5374E-02
2.470	1.7292E+00	1.5381E-02
2.480	1.7291E+00	1.5388E-02
2.490	1.7291E+00	1.5395E-02
2.500	1.7291E+00	1.5402E-02
2.510	1.7291E+00	1.5409E-02
2.520	1.7290E+00	1.5417E-02
2.530	1.7290E+00	1.5425E-02
2.540	1.7290E+00	1.5433E-02
2.550	1.7290E+00	1.5441E-02
2.560	1.7289E+00	1.5450E-02
2.570	1.7289E+00	1.5459E-02
2.580	1.7289E+00	1.5468E-02
2.590	1.7289E+00	1.5477E-02
2.600	1.7288E+00	1.5487E-02
2.610	1.7288E+00	1.5496E-02
2.620	1.7288E+00	1.5506E-02
2.630	1.7288E+00	1.5516E-02
2.640	1.7287E+00	1.5527E-02
2.650	1.7287E+00	1.5537E-02
2.660	1.7287E+00	1.5548E-02
2.670	1.7287E+00	1.5559E-02
2.680	1.7287E+00	1.5570E-02
2.690	1.7286E+00	1.5582E-02
2.700	1.7286E+00	1.5593E-02
2.710	1.7286E+00	1.5605E-02
2.720	1.7286E+00	1.5617E-02
2.730	1.7286E+00	1.5629E-02
2.740	1.7285E+00	1.5641E-02
2.750	1.7285E+00	1.5654E-02
2.760	1.7285E+00	1.5666E-02
2.770	1.7285E+00	1.5679E-02
2.780	1.7285E+00	1.5692E-02
2.790	1.7285E+00	1.5705E-02
2.800	1.7284E+00	1.5719E-02
2.810	1.7284E+00	1.5732E-02
2.820	1.7284E+00	1.5746E-02
2.830	1.7284E+00	1.5760E-02
2.840	1.7284E+00	1.5774E-02
2.850	1.7283E+00	1.5788E-02
2.860	1.7283E+00	1.5802E-02
2.870	1.7283E+00	1.5817E-02
2.880	1.7283E+00	1.5831E-02
2.890	1.7283E+00	1.5846E-02
2.900	1.7283E+00	1.5861E-02
2.910	1.7282E+00	1.5876E-02
2.920	1.7282E+00	1.5891E-02
2.930	1.7282E+00	1.5907E-02
2.940	1.7282E+00	1.5922E-02
2.950	1.7282E+00	1.5938E-02
2.960	1.7282E+00	1.5954E-02
2.970	1.7282E+00	1.5970E-02
2.980	1.7281E+00	1.5986E-02
2.990	1.7281E+00	1.6002E-02
3.000	1.7281E+00	1.6018E-02
3.010	1.7281E+00	1.6035E-02
3.020	1.7281E+00	1.6052E-02
3.030	1.7281E+00	1.6068E-02
3.040	1.7281E+00	1.6085E-02
3.050	1.7280E+00	1.6102E-02
3.060	1.7280E+00	1.6119E-02
3.070	1.7280E+00	1.6137E-02
3.080	1.7280E+00	1.6154E-02
3.090	1.7280E+00	1.6172E-02
3.100	1.7280E+00	1.6189E-02
3.110	1.7280E+00	1.6207E-02
3.120	1.7279E+00	1.6225E-02
3.130	1.7279E+00	1.6243E-02
3.140	1.7279E+00	1.6261E-02
3.150	1.7279E+00	1.6279E-02
3.160	1.7279E+00	1.6298E-02
3.170	1.7279E+00	1.6316E-02
3.180	1.7279E+00	1.6335E-02
3.190	1.7279E+00	1.6353E-02
3.200	1.7278E+00	1.6372E-02
