Material: main / ZnO / Querry
Optical constants. M. R. Querry. Optical constants, Contractor Report CRDC-CR-85034 (1985)
Comments: ZnO pellet.
wavelength (um)	n	k
0.2100	1.417	0.003
0.2300	1.421	0.003
0.2500	1.430	0.004
0.2700	1.444	0.004
0.2900	1.459	0.005
0.3100	1.476	0.006
0.3300	1.499	0.007
0.3500	1.523	0.008
0.3700	1.627	0.009
0.3900	1.572	0.006
0.4100	1.550	0.006
0.4300	1.546	0.006
0.4500	1.548	0.007
0.4700	1.553	0.007
0.4900	1.559	0.008
0.5100	1.561	0.008
0.5300	1.566	0.009
0.5500	1.570	0.009
0.5700	1.573	0.009
0.5900	1.577	0.010
0.6100	1.581	0.010
0.6300	1.584	0.010
0.6500	1.587	0.011
0.6700	1.590	0.011
0.6900	1.594	0.012
0.7100	1.597	0.012
0.7300	1.601	0.012
0.7500	1.604	0.013
0.7700	1.608	0.013
0.7900	1.610	0.014
0.8100	1.612	0.014
0.8300	1.616	0.015
0.8500	1.619	0.015
0.8700	1.624	0.016
0.8900	1.630	0.017
0.9100	1.636	0.017
0.9300	1.641	0.017
0.9500	1.646	0.018
0.9700	1.650	0.018
0.9900	1.654	0.018
1.0100	1.658	0.019
1.0300	1.662	0.019
1.0500	1.664	0.019
1.0700	1.668	0.020
1.0900	1.671	0.020
1.1100	1.673	0.020
1.1300	1.678	0.021
1.1500	1.681	0.021
1.1700	1.683	0.021
1.1900	1.685	0.021
1.2100	1.688	0.021
1.2300	1.690	0.021
1.2500	1.692	0.021
1.2700	1.694	0.022
1.2900	1.695	0.022
1.3100	1.697	0.022
1.3300	1.698	0.022
1.3500	1.700	0.022
1.3700	1.701	0.022
1.3900	1.702	0.022
1.4100	1.704	0.022
1.4300	1.705	0.023
1.4500	1.707	0.023
1.4700	1.708	0.023
1.4900	1.709	0.023
1.5100	1.710	0.023
1.5300	1.709	0.023
1.5500	1.712	0.023
1.5700	1.713	0.023
1.5900	1.712	0.024
1.6100	1.714	0.024
1.6300	1.715	0.024
1.6500	1.716	0.024
1.6700	1.717	0.024
1.6900	1.717	0.024
1.7100	1.718	0.024
1.7300	1.720	0.024
1.7500	1.721	0.024
1.7700	1.722	0.024
1.7900	1.723	0.024
1.8100	1.720	0.024
1.8300	1.723	0.025
1.8500	1.724	0.024
1.8700	1.722	0.025
1.8900	1.724	0.025
1.9100	1.725	0.025
1.9300	1.726	0.025
1.9500	1.728	0.025
1.9700	1.728	0.025
1.9900	1.728	0.025
2.0100	1.728	0.025
2.0300	1.729	0.026
2.0500	1.730	0.026
2.0700	1.730	0.026
2.0900	1.731	0.026
2.1100	1.730	0.026
2.1300	1.731	0.026
2.1500	1.732	0.026
2.1700	1.732	0.026
2.1900	1.733	0.026
2.2100	1.733	0.026
2.2300	1.733	0.026
2.2500	1.734	0.026
2.2700	1.734	0.026
2.2900	1.734	0.027
2.3100	1.735	0.027
2.3300	1.735	0.027
2.3500	1.736	0.027
2.3700	1.736	0.027
2.3900	1.737	0.027
2.4100	1.738	0.027
2.4300	1.738	0.027
2.4500	1.738	0.027
2.4700	1.739	0.027
2.4900	1.739	0.027
2.5063	1.742	0.028
2.5189	1.743	0.027
2.5316	1.745	0.027
2.5445	1.746	0.027
2.5575	1.744	0.027
2.5707	1.743	0.026
2.5840	1.743	0.027
2.5974	1.744	0.026
2.6110	1.743	0.026
2.6247	1.747	0.025
2.6385	1.746	0.024
2.6525	1.746	0.024
2.6667	1.744	0.025
2.6810	1.747	0.023
2.6954	1.739	0.021
2.7100	1.734	0.022
2.7248	1.735	0.022
2.7397	1.733	0.022
2.7548	1.731	0.022
2.7701	1.726	0.022
2.7855	1.723	0.022
2.8011	1.726	0.022
2.8169	1.719	0.023
2.8329	1.721	0.024
2.8490	1.720	0.024
2.8653	1.720	0.025
2.8818	1.719	0.025
2.8986	1.721	0.025
2.9155	1.716	0.026
2.9326	1.719	0.027
2.9499	1.717	0.027
2.9674	1.717	0.028
2.9851	1.721	0.030
3.0030	1.721	0.029
3.0211	1.723	0.029
3.0395	1.725	0.030
3.0581	1.726	0.030
3.0769	1.722	0.030
3.0960	1.726	0.031
3.1153	1.728	0.031
3.1348	1.728	0.031
3.1546	1.731	0.032
3.1746	1.728	0.031
3.1949	1.732	0.032
3.2154	1.729	0.032
3.2362	1.733	0.032
3.2573	1.733	0.033
3.2787	1.736	0.032
3.3003	1.733	0.032
3.3223	1.738	0.032
3.3445	1.734	0.031
3.3670	1.735	0.032
3.3898	1.735	0.032
3.4130	1.731	0.032
3.4364	1.735	0.033
3.4602	1.737	0.033
3.4843	1.734	0.033
3.5088	1.734	0.034
3.5336	1.740	0.035
3.5587	1.736	0.034
3.5842	1.740	0.033
3.6101	1.741	0.034
3.6364	1.743	0.034
3.6630	1.740	0.035
3.6900	1.740	0.034
3.7175	1.740	0.035
3.7453	1.740	0.034
3.7736	1.742	0.034
3.8023	1.743	0.033
3.8314	1.743	0.034
3.8610	1.742	0.033
3.8911	1.742	0.034
3.9216	1.745	0.034
3.9526	1.744	0.033
3.9841	1.742	0.033
4.0161	1.745	0.033
4.0486	1.742	0.032
4.0816	1.743	0.033
4.1152	1.744	0.033
4.1494	1.742	0.032
4.1841	1.744	0.033
4.2194	1.742	0.032
4.2553	1.739	0.032
4.2918	1.739	0.033
4.3290	1.740	0.032
4.3668	1.739	0.032
4.4053	1.738	0.032
4.4444	1.737	0.031
4.4843	1.736	0.032
4.5249	1.737	0.032
4.5662	1.737	0.032
4.6083	1.735	0.032
4.6512	1.735	0.031
4.6948	1.733	0.032
4.7393	1.731	0.033
4.7847	1.732	0.032
4.8309	1.733	0.032
4.8780	1.731	0.033
4.9261	1.729	0.033
4.9751	1.729	0.034
5.0251	1.734	0.036
5.0761	1.734	0.033
5.1282	1.731	0.033
5.1813	1.731	0.033
5.2356	1.731	0.033
5.2910	1.730	0.032
5.3476	1.729	0.031
5.4054	1.727	0.032
5.4645	1.727	0.030
5.5249	1.726	0.030
5.5866	1.724	0.030
5.6497	1.722	0.028
5.7143	1.713	0.028
5.7803	1.713	0.031
5.8480	1.714	0.032
5.9172	1.712	0.030
5.9880	1.713	0.030
6.0606	1.712	0.031
6.1350	1.706	0.029
6.2112	1.705	0.030
6.2893	1.701	0.031
6.3694	1.699	0.031
6.4516	1.702	0.030
6.5359	1.695	0.030
6.6225	1.694	0.030
6.7114	1.692	0.031
6.8027	1.685	0.031
6.8966	1.681	0.032
6.9930	1.682	0.034
7.0922	1.677	0.034
7.1942	1.677	0.033
7.2993	1.670	0.037
7.4074	1.673	0.038
7.5188	1.667	0.036
7.6336	1.665	0.038
7.7519	1.661	0.037
7.8740	1.657	0.037
8.0000	1.654	0.037
8.1301	1.651	0.042
8.2645	1.644	0.039
8.4034	1.640	0.040
8.5470	1.635	0.039
8.6957	1.627	0.041
8.8496	1.621	0.043
9.0090	1.615	0.044
9.1743	1.608	0.048
9.3458	1.601	0.049
9.5238	1.592	0.052
9.7087	1.586	0.058
9.9010	1.578	0.058
10.1010	1.574	0.062
10.3093	1.562	0.060
10.5263	1.554	0.059
10.7527	1.541	0.061
10.9890	1.528	0.066
11.2360	1.515	0.067
11.4943	1.504	0.069
11.7647	1.491	0.067
12.0482	1.473	0.062
12.3457	1.448	0.062
12.6582	1.422	0.062
12.9870	1.392	0.062
13.3333	1.354	0.064
13.6986	1.317	0.071
14.0845	1.272	0.073
14.4928	1.215	0.075
14.9254	1.150	0.083
15.3846	1.063	0.086
15.8730	0.936	0.097
16.3934	0.765	0.125
16.9492	0.462	0.250
17.5439	0.258	0.621
18.1818	0.236	1.001
18.8679	0.286	1.350
19.6078	0.384	1.693
20.4082	0.521	2.026
21.2766	0.644	2.400
22.2222	0.797	3.017
23.2558	1.509	4.071
24.3902	3.940	4.458
25.6410	5.090	2.304
27.0270	4.644	0.838
28.5714	3.910	0.366
30.3030	3.484	0.289
32.2581	3.283	0.222
34.4828	3.105	0.162
37.0370	2.972	0.133
40.0000	2.864	0.127
43.4783	2.803	0.132
47.6190	2.754	0.124
52.6316	2.697	0.109
