Material: glass / ohara / BAH10
Optical constants. OHARA Zemax catalog 2017-11-30 (obtained from http://www.ohara-inc.co.jp)See also OHARA glass data sheets
Specs: {"n_absolute": false, "wavelength_vacuum": false, "temperature": "25.0 °C", "thermal_dispersion": [{"type": "Schott formula", "coefficients": "3.2706e-06 0.0 0.0 0.0 0.0 0.0"}], "nd": 1.670029, "Vd": 47.253429, "glass_code": 670473, "glass_status": "preferred", "density": "3.77 g/cm3", "thermal_expansion": [{"temperature_range": "-30 70 °C", "coefficient": "7.1e-06 K-1"}, {"temperature_range": "20 300 °C", "coefficient": "8.2e-06 K-1"}], "dPgF": -0.0006}
Dispersion formula 3, range 0.365 0.9 um, coefficients 2.730459 -0.01063385 2 0.01942756 -2 0.0008209873 -4 -5.210457e-05 -6 4.447534e-06 -8
wavelength (um)	k
0.400	2.5850E-07
0.420	1.1561E-07
0.440	7.4313E-08
0.460	5.5324E-08
0.480	4.2250E-08
0.500	2.7950E-08
0.550	1.7542E-08
0.600	2.3933E-08
0.650	2.5928E-08
0.700	2.2326E-08
0.800	1.2745E-08
0.900	1.4338E-08
