Material: glass / ohara / BAH11
Optical constants. OHARA Zemax catalog 2017-11-30 (obtained from http://www.ohara-inc.co.jp)See also OHARA glass data sheets
Specs: {"n_absolute": false, "wavelength_vacuum": false, "temperature": "25.0 °C", "thermal_dispersion": [{"type": "Schott formula", "coefficients": "3.0607e-06 0.0 0.0 0.0 0.0 0.0"}], "nd": 1.666718, "Vd": 48.317266, "glass_code": 667483, "glass_status": "preferred", "density": "3.81 g/cm3", "thermal_expansion": [{"temperature_range": "-30 70 °C", "coefficient": "7.4e-06 K-1"}, {"temperature_range": "20 300 °C", "coefficient": "8.5e-06 K-1"}], "dPgF": -0.0013}
Dispersion formula 3, range 0.365 0.9 um, coefficients 2.717567 -0.008666231 2 0.02116288 -2 0.0001530768 -4 3.227309e-05 -6 6.602266e-08 -8
wavelength (um)	k
0.400	2.1393E-07
0.420	9.4918E-08
0.440	6.7167E-08
0.460	5.1610E-08
0.480	3.8389E-08
0.500	2.7950E-08
0.550	1.3150E-08
0.600	1.9137E-08
0.650	2.5928E-08
0.700	2.2326E-08
0.800	1.2745E-08
0.900	1.4338E-08
