Material: glass / ohara / BAH13
Optical constants. OHARA Zemax catalog 2017-11-30 (obtained from http://www.ohara-inc.co.jp)See also OHARA glass data sheets
Specs: {"n_absolute": false, "wavelength_vacuum": false, "temperature": "25.0 °C", "thermal_dispersion": [{"type": "Schott formula", "coefficients": "2.589e-06 0.0 0.0 0.0 0.0 0.0"}], "nd": 1.668921, "Vd": 44.987354, "glass_code": 669450, "glass_status": "preferred", "density": "4.0 g/cm3", "thermal_expansion": [{"temperature_range": "-30 70 °C", "coefficient": "7.6e-06 K-1"}, {"temperature_range": "20 300 °C", "coefficient": "8.8e-06 K-1"}], "dPgF": 0.0005, "acid_resistance": 53.2, "phosphate_resistance": 3.2}
Dispersion formula 3, range 0.3 2.4 um, coefficients 2.7229077 -0.0099369888 2 0.02092378 -2 0.00065136672 -4 -1.9388233e-05 -6 3.1119561e-06 -8
wavelength (um)	k
0.350	6.1477E-06
0.360	2.6250E-06
0.370	1.2684E-06
0.380	6.3721E-07
0.390	3.6167E-07
0.400	2.1734E-07
0.420	1.0180E-07
0.440	6.7167E-08
0.460	5.1610E-08
0.480	3.8389E-08
0.500	2.3945E-08
0.550	1.7542E-08
0.600	1.9137E-08
0.650	2.5928E-08
0.700	2.2326E-08
0.800	1.9127E-08
0.900	2.8705E-08
