Material: glass / ohara / BAH27
Optical constants. OHARA Zemax catalog 2017-11-30 (obtained from http://www.ohara-inc.co.jp)See also OHARA glass data sheets
Specs: {"n_absolute": false, "wavelength_vacuum": false, "temperature": "25.0 °C", "thermal_dispersion": [{"type": "Schott formula", "coefficients": "4.1987e-06 0.0 0.0 0.0 0.0 0.0"}], "nd": 1.701536, "Vd": 41.242277, "glass_code": 702412, "glass_status": "preferred", "density": "4.02 g/cm3", "thermal_expansion": [{"temperature_range": "-30 70 °C", "coefficient": "7.5e-06 K-1"}, {"temperature_range": "20 300 °C", "coefficient": "8.5e-06 K-1"}], "dPgF": 0.0024}
Dispersion formula 3, range 0.365 0.9 um, coefficients 2.823151 -0.01090859 2 0.02374898 -2 0.000901646 -4 -3.713171e-05 -6 5.48189e-06 -8
wavelength (um)	k
0.420	1.5739E-07
0.440	9.9438E-08
0.460	7.0220E-08
0.480	4.9982E-08
0.500	3.1959E-08
0.550	1.7542E-08
0.600	2.3933E-08
0.650	3.1129E-08
0.700	2.2326E-08
0.800	1.9127E-08
0.900	2.1518E-08
