Material: glass / ohara / BAH77
Optical constants. OHARA Zemax catalog 2017-11-30 (obtained from http://www.ohara-inc.co.jp)See also OHARA glass data sheets
Specs: {"n_absolute": false, "wavelength_vacuum": false, "temperature": "25.0 °C", "thermal_dispersion": [{"type": "Schott formula", "coefficients": "4.398e-06 0.0 0.0 0.0 0.0 0.0"}], "nd": 1.701539, "Vd": 41.21001, "glass_code": 702412, "glass_status": "preferred", "density": "4.15 g/cm3", "thermal_expansion": [{"temperature_range": "-30 70 °C", "coefficient": "7.2e-06 K-1"}, {"temperature_range": "20 300 °C", "coefficient": "8.4e-06 K-1"}], "dPgF": 0.0003, "acid_resistance": 51.2, "phosphate_resistance": 2.0}
Dispersion formula 3, range 0.3 2.4 um, coefficients 2.8222929 -0.010636602 2 0.024365241 -2 0.00070591145 -4 -3.9506977e-06 -6 2.9865625e-06 -8
wavelength (um)	k
0.340	5.1329E-06
0.350	1.9306E-06
0.360	8.2415E-07
0.370	4.1004E-07
0.380	2.0971E-07
0.390	1.2993E-07
0.400	8.7125E-08
0.420	5.3908E-08
0.440	4.5817E-08
0.460	3.6790E-08
0.480	2.6832E-08
0.500	1.9944E-08
0.550	8.7623E-09
0.600	1.4345E-08
0.650	2.0732E-08
0.700	1.1152E-08
