Material: glass / ohara / BAL11
Optical constants. OHARA Zemax catalog 2017-11-30 (obtained from http://www.ohara-inc.co.jp)See also OHARA glass data sheets
Specs: {"n_absolute": false, "wavelength_vacuum": false, "temperature": "25.0 °C", "thermal_dispersion": [{"type": "Schott formula", "coefficients": "3.5762e-06 0.0 0.0 0.0 0.0 0.0"}], "nd": 1.572501, "Vd": 57.760854, "glass_code": 573578, "glass_status": "preferred", "density": "3.09 g/cm3", "thermal_expansion": [{"temperature_range": "-30 70 °C", "coefficient": "7.2e-06 K-1"}, {"temperature_range": "20 300 °C", "coefficient": "8.6e-06 K-1"}], "dPgF": -0.0018}
Dispersion formula 3, range 0.365 0.9 um, coefficients 2.433807 -0.009321052 2 0.01397331 -2 0.0001804732 -4 7.763637e-06 -6 -1.184873e-07 -8
wavelength (um)	k
0.360	1.9254E-07
0.370	1.1407E-07
0.380	8.8991E-08
0.390	5.3213E-08
0.400	3.1991E-08
0.420	2.6846E-08
0.440	2.8124E-08
0.460	2.5714E-08
0.480	1.9146E-08
0.500	1.9944E-08
0.550	8.7623E-09
0.600	1.4345E-08
0.650	2.0732E-08
0.700	1.6736E-08
0.800	1.9127E-08
0.900	1.4769E-08
