Material: glass / ohara / BAL2
Optical constants. OHARA Zemax catalog 2017-11-30 (obtained from http://www.ohara-inc.co.jp)See also OHARA glass data sheets
Specs: {"n_absolute": false, "wavelength_vacuum": false, "temperature": "25.0 °C", "thermal_dispersion": [{"type": "Schott formula", "coefficients": "4.152e-06 0.0 0.0 0.0 0.0 0.0"}], "nd": 1.570989, "Vd": 50.797474, "glass_code": 571508, "glass_status": "preferred", "density": "3.1 g/cm3", "thermal_expansion": [{"temperature_range": "-30 70 °C", "coefficient": "1e-05 K-1"}, {"temperature_range": "20 300 °C", "coefficient": "1.16e-05 K-1"}], "dPgF": -0.0007}
Dispersion formula 3, range 0.365 0.9 um, coefficients 2.424312 -0.00858474 2 0.01472045 -2 0.0005504561 -4 -3.170738e-05 -6 2.420757e-06 -8
wavelength (um)	k
0.350	2.0212E-07
0.360	1.1396E-07
0.370	7.4545E-08
0.380	5.4927E-08
0.390	4.0610E-08
0.400	2.8778E-08
0.420	2.3478E-08
0.440	2.4596E-08
0.460	2.5714E-08
0.480	1.9146E-08
0.500	1.5947E-08
0.550	8.7623E-09
0.600	9.5589E-09
0.650	2.0732E-08
0.700	1.1152E-08
