Material: glass / ohara / BAL22
Optical constants. OHARA Zemax catalog 2017-11-30 (obtained from http://www.ohara-inc.co.jp)See also OHARA glass data sheets
Specs: {"n_absolute": false, "wavelength_vacuum": false, "temperature": "25.0 °C", "thermal_dispersion": [{"type": "Schott formula", "coefficients": "3.1613e-06 0.0 0.0 0.0 0.0 0.0"}], "nd": 1.568729, "Vd": 63.162358, "glass_code": 569632, "glass_status": "preferred", "density": "3.06 g/cm3", "thermal_expansion": [{"temperature_range": "-30 70 °C", "coefficient": "6.6e-06 K-1"}, {"temperature_range": "20 300 °C", "coefficient": "7.9e-06 K-1"}], "dPgF": -0.0029}
Dispersion formula 3, range 0.365 0.9 um, coefficients 2.428819 -0.01160085 2 0.01108574 -2 0.00063122 -4 -6.395123e-05 -6 3.440011e-06 -8
wavelength (um)	k
0.370	2.2637E-07
0.380	1.5511E-07
0.390	9.4531E-08
0.400	6.1061E-08
0.420	4.3734E-08
0.440	4.5817E-08
0.460	3.6790E-08
0.480	3.0681E-08
0.500	2.3945E-08
0.550	1.7542E-08
0.600	2.3933E-08
0.650	3.1129E-08
0.700	2.2326E-08
