Material: glass / ohara / BAL35
Optical constants. OHARA Zemax catalog 2017-11-30 (obtained from http://www.ohara-inc.co.jp)See also OHARA glass data sheets
Specs: {"n_absolute": false, "wavelength_vacuum": false, "temperature": "25.0 °C", "thermal_dispersion": [{"type": "Schott formula", "coefficients": "2.65e-06 0.0 0.0 0.0 0.0 0.0"}], "nd": 1.58913, "Vd": 61.182174, "glass_code": 589612, "glass_status": "preferred", "density": "3.31 g/cm3", "thermal_expansion": [{"temperature_range": "-30 70 °C", "coefficient": "5.8e-06 K-1"}, {"temperature_range": "20 300 °C", "coefficient": "6.7e-06 K-1"}], "dPgF": -0.0021}
Dispersion formula 3, range 0.365 0.9 um, coefficients 2.487525 -0.01022867 2 0.01374306 -2 0.0001662538 -4 6.25135e-06 -6 -2.342041e-07 -8
wavelength (um)	k
0.370	1.7593E-07
0.380	1.0773E-07
0.390	7.2215E-08
0.400	4.4878E-08
0.420	2.6846E-08
0.440	2.4596E-08
0.460	2.2030E-08
0.480	1.5310E-08
0.500	1.1955E-08
0.550	8.7623E-09
0.600	1.4345E-08
0.650	2.0732E-08
0.700	1.6736E-08
