Material: glass / ohara / BAL7
Optical constants. OHARA Zemax catalog 2017-11-30 (obtained from http://www.ohara-inc.co.jp)See also OHARA glass data sheets
Specs: {"n_absolute": false, "wavelength_vacuum": false, "temperature": "25.0 °C", "thermal_dispersion": [{"type": "Schott formula", "coefficients": "3.871e-06 0.0 0.0 0.0 0.0 0.0"}], "nd": 1.58875, "Vd": 51.179278, "glass_code": 589512, "glass_status": "preferred", "density": "3.18 g/cm3", "thermal_expansion": [{"temperature_range": "-30 70 °C", "coefficient": "7.5e-06 K-1"}, {"temperature_range": "20 300 °C", "coefficient": "8.8e-06 K-1"}], "dPgF": -0.0012, "acid_resistance": 4.2, "phosphate_resistance": 2.2}
Dispersion formula 3, range 0.3 2.4 um, coefficients 2.4787185 -0.0085856348 2 0.015210012 -2 0.0006044033 -4 -3.8936391e-05 -6 2.7124338e-06 -8
wavelength (um)	k
0.320	5.3992E-06
0.330	2.1559E-06
0.340	1.0040E-06
0.350	5.5273E-07
0.360	2.9865E-07
0.370	1.8218E-07
0.380	1.2030E-07
0.390	7.5393E-08
0.400	5.1341E-08
0.420	3.3591E-08
0.440	2.8124E-08
0.460	2.2030E-08
0.480	1.9146E-08
0.500	1.1955E-08
0.550	8.7623E-09
0.600	1.4345E-08
0.650	1.5541E-08
0.700	1.1152E-08
0.800	1.2745E-08
0.900	1.4338E-08
