Material: glass / ohara / BAM25
Optical constants. OHARA Zemax catalog 2017-11-30 (obtained from http://www.ohara-inc.co.jp)See also OHARA glass data sheets
Specs: {"n_absolute": false, "wavelength_vacuum": false, "temperature": "25.0 °C", "thermal_dispersion": [{"type": "Schott formula", "coefficients": "2.6357e-06 0.0 0.0 0.0 0.0 0.0"}], "nd": 1.60323, "Vd": 42.320943, "glass_code": 603423, "glass_status": "preferred", "density": "3.46 g/cm3", "thermal_expansion": [{"temperature_range": "-30 70 °C", "coefficient": "8.4e-06 K-1"}, {"temperature_range": "20 300 °C", "coefficient": "9.5e-06 K-1"}]}
Dispersion formula 3, range 0.365 0.9 um, coefficients 2.513482 -0.008739639 2 0.0186819 -2 0.0007470892 -4 -3.047596e-05 -6 3.39904e-06 -8
wavelength (um)	k
0.360	1.9560E-07
0.370	1.1407E-07
0.380	8.2769E-08
0.390	4.6905E-08
0.400	2.8778E-08
0.420	2.0114E-08
0.440	2.1072E-08
0.460	1.4672E-08
0.480	1.5310E-08
0.500	1.1955E-08
0.550	8.7623E-09
0.600	9.5589E-09
0.650	1.5541E-08
0.700	1.1152E-08
0.800	1.2745E-08
0.900	2.1518E-08
