Material: glass / ohara / BAM3
Optical constants. OHARA Zemax catalog 2017-11-30 (obtained from http://www.ohara-inc.co.jp)See also OHARA glass data sheets
Specs: {"n_absolute": false, "wavelength_vacuum": false, "temperature": "25.0 °C", "thermal_dispersion": [{"type": "Schott formula", "coefficients": "3.1992e-06 0.0 0.0 0.0 0.0 0.0"}], "nd": 1.582673, "Vd": 46.423092, "glass_code": 583464, "glass_status": "preferred", "density": "3.18 g/cm3", "thermal_expansion": [{"temperature_range": "-30 70 °C", "coefficient": "8.1e-06 K-1"}, {"temperature_range": "20 300 °C", "coefficient": "9.2e-06 K-1"}], "dPgF": -0.0003, "acid_resistance": 1.2, "phosphate_resistance": 2.0}
Dispersion formula 2, range 0.3 2.4 um, coefficients 0 1.264742 0.007911881 0.189784 0.03806705 1.105094 133.8316
wavelength (um)	k
0.310	6.5601E-06
0.320	2.0334E-06
0.330	7.2069E-07
0.340	3.1530E-07
0.350	1.7234E-07
0.360	1.0503E-07
0.370	7.4545E-08
0.380	4.8774E-08
0.390	3.4328E-08
0.400	2.2360E-08
0.420	2.0114E-08
0.440	1.7551E-08
0.460	1.0998E-08
0.480	7.6471E-09
0.500	3.9809E-09
0.550	8.7623E-09
0.600	9.5589E-09
0.650	1.0355E-08
0.700	5.5732E-09
0.800	6.3694E-09
0.900	7.1656E-09
1.000	7.9617E-09
1.200	7.6702E-08
1.400	6.7046E-08
1.600	2.7023E-07
1.800	5.4004E-07
