Material: glass / ohara / BAM4
Optical constants. OHARA Zemax catalog 2017-11-30 (obtained from http://www.ohara-inc.co.jp)See also OHARA glass data sheets
Specs: {"n_absolute": false, "wavelength_vacuum": false, "temperature": "25.0 °C", "thermal_dispersion": [{"type": "Schott formula", "coefficients": "5.7294e-07 0.0 0.0 0.0 0.0 0.0"}], "nd": 1.60562, "Vd": 43.723021, "glass_code": 606437, "glass_status": "preferred", "density": "3.5 g/cm3", "thermal_expansion": [{"temperature_range": "-30 70 °C", "coefficient": "8e-06 K-1"}, {"temperature_range": "20 300 °C", "coefficient": "9e-06 K-1"}], "dPgF": 0.0004}
Dispersion formula 3, range 0.365 0.9 um, coefficients 2.521467 -0.007991308 2 0.01891922 -2 0.000549235 -4 -1.150794e-05 -6 2.505827e-06 -8
wavelength (um)	k
0.370	1.6968E-07
0.380	1.2030E-07
0.390	7.2215E-08
0.400	4.1652E-08
0.420	2.6846E-08
0.440	2.4596E-08
0.460	1.8349E-08
0.480	1.1476E-08
0.500	1.1955E-08
0.550	8.7623E-09
0.600	9.5589E-09
0.650	1.5541E-08
0.700	1.6736E-08
0.800	1.9127E-08
0.900	2.1518E-08
