Material: glass / ohara / BAM5
Optical constants. OHARA Zemax catalog 2017-11-30 (obtained from http://www.ohara-inc.co.jp)See also OHARA glass data sheets
Specs: {"n_absolute": false, "wavelength_vacuum": false, "temperature": "25.0 °C", "thermal_dispersion": [{"type": "Schott formula", "coefficients": "3.33e-06 0.0 0.0 0.0 0.0 0.0"}], "nd": 1.607289, "Vd": 49.188575, "glass_code": 607492, "glass_status": "preferred", "density": "3.39 g/cm3", "thermal_expansion": [{"temperature_range": "-30 70 °C", "coefficient": "8.1e-06 K-1"}, {"temperature_range": "20 300 °C", "coefficient": "9.1e-06 K-1"}], "dPgF": -0.001, "acid_resistance": 52.2, "phosphate_resistance": 2.2}
Dispersion formula 3, range 0.3 2.4 um, coefficients 2.533703 -0.0090417017 2 0.016851835 -2 0.00051005408 -4 -1.7651257e-05 -6 1.8665437e-06 -8
wavelength (um)	k
0.320	8.1968E-06
0.330	3.2507E-06
0.340	1.4276E-06
0.350	6.9202E-07
0.360	3.6622E-07
0.370	1.9160E-07
0.380	1.2344E-07
0.390	8.1759E-08
0.400	5.1341E-08
0.420	4.0350E-08
0.440	4.2271E-08
0.460	3.3094E-08
0.480	2.6832E-08
0.500	1.9944E-08
0.550	1.3150E-08
0.600	2.3933E-08
0.650	3.1129E-08
0.700	2.2326E-08
0.800	1.9127E-08
0.900	2.1518E-08
