Material: glass / ohara / BPH50
Optical constants. OHARA Zemax catalog 2017-11-30 (obtained from http://www.ohara-inc.co.jp)See also OHARA glass data sheets
Specs: {"n_absolute": false, "wavelength_vacuum": false, "temperature": "25.0 °C", "thermal_dispersion": [{"type": "Schott formula", "coefficients": "1.335e-05 0.0 0.0 0.0 0.0 0.0"}], "nd": 1.739997, "Vd": 31.710001, "glass_code": 740317, "glass_status": "preferred", "density": "4.48 g/cm3", "thermal_expansion": [{"temperature_range": "-30 70 °C", "coefficient": "5.6e-06 K-1"}, {"temperature_range": "20 300 °C", "coefficient": "6.5e-06 K-1"}], "acid_resistance": 52.2, "phosphate_resistance": 4.2}
Dispersion formula 3, range 0.3 2.4 um, coefficients 2.9271459 -0.011970157 2 0.031922538 -2 0.0015457537 -4 -6.3507309e-05 -6 9.6835139e-06 -8
wavelength (um)	k
0.350	7.0347E-06
0.360	4.2103E-06
0.370	2.6252E-06
0.380	1.6472E-06
0.390	9.7671E-07
0.400	5.9311E-07
0.420	2.1036E-07
0.440	8.5059E-08
0.460	4.0489E-08
0.480	2.2987E-08
0.500	1.5947E-08
0.550	1.3150E-08
0.600	1.4345E-08
0.650	1.0355E-08
0.700	1.1152E-08
