Material: glass / ohara / BSM15
Optical constants. OHARA Zemax catalog 2017-11-30 (obtained from http://www.ohara-inc.co.jp)See also OHARA glass data sheets
Specs: {"n_absolute": false, "wavelength_vacuum": false, "temperature": "25.0 °C", "thermal_dispersion": [{"type": "Schott formula", "coefficients": "2.6586e-06 0.0 0.0 0.0 0.0 0.0"}], "nd": 1.622992, "Vd": 58.143312, "glass_code": 623582, "glass_status": "preferred", "density": "3.65 g/cm3", "thermal_expansion": [{"temperature_range": "-30 70 °C", "coefficient": "7e-06 K-1"}, {"temperature_range": "20 300 °C", "coefficient": "8e-06 K-1"}], "dPgF": -0.0017}
Dispersion formula 3, range 0.365 0.9 um, coefficients 2.59025 -0.009886858 2 0.01565646 -2 0.0002117553 -4 5.763945e-06 -6 -3.134574e-08 -8
wavelength (um)	k
0.360	2.3576E-07
0.370	1.3865E-07
0.380	8.5878E-08
0.390	5.9534E-08
0.400	3.8428E-08
0.420	2.6846E-08
0.440	2.4596E-08
0.460	2.2030E-08
0.480	1.5310E-08
0.500	1.1955E-08
0.550	8.7623E-09
0.600	1.4345E-08
0.650	1.5541E-08
0.700	1.6736E-08
