Material: glass / ohara / BSM28
Optical constants. OHARA Zemax catalog 2017-11-30 (obtained from http://www.ohara-inc.co.jp)See also OHARA glass data sheets
Specs: {"n_absolute": false, "wavelength_vacuum": false, "temperature": "25.0 °C", "thermal_dispersion": [{"type": "Schott formula", "coefficients": "-2.9384e-06 0.0 0.0 0.0 0.0 0.0"}], "nd": 1.617722, "Vd": 49.83232, "glass_code": 618498, "glass_status": "preferred", "density": "3.25 g/cm3", "thermal_expansion": [{"temperature_range": "-30 70 °C", "coefficient": "8.4e-06 K-1"}, {"temperature_range": "20 300 °C", "coefficient": "9.5e-06 K-1"}], "dPgF": 0.0005}
Dispersion formula 3, range 0.365 0.9 um, coefficients 2.568088 -0.01046716 2 0.01660196 -2 0.0005809348 -4 -2.356209e-05 -6 2.231142e-06 -8
wavelength (um)	k
0.390	2.4531E-07
0.400	1.5658E-07
0.420	8.8048E-08
0.440	7.4313E-08
0.460	5.9043E-08
0.480	4.6114E-08
0.500	3.5972E-08
0.550	2.1939E-08
0.600	2.8734E-08
0.650	3.6335E-08
0.700	3.3523E-08
0.800	3.8312E-08
0.900	5.0887E-08
