Material: glass / ohara / BSM2
Optical constants. OHARA Zemax catalog 2017-11-30 (obtained from http://www.ohara-inc.co.jp)See also OHARA glass data sheets
Specs: {"n_absolute": false, "wavelength_vacuum": false, "temperature": "25.0 °C", "thermal_dispersion": [{"type": "Schott formula", "coefficients": "-4.2303e-06 0.0 0.0 0.0 0.0 0.0"}], "nd": 1.607379, "Vd": 56.815789, "glass_code": 607568, "glass_status": "preferred", "density": "3.54 g/cm3", "thermal_expansion": [{"temperature_range": "-30 70 °C", "coefficient": "6.3e-06 K-1"}, {"temperature_range": "20 300 °C", "coefficient": "7.5e-06 K-1"}], "dPgF": -0.001}
Dispersion formula 3, range 0.365 0.9 um, coefficients 2.540784 -0.00928151 2 0.01490321 -2 0.0003779065 -4 -1.245295e-05 -6 7.093602e-07 -8
wavelength (um)	k
0.350	2.3830E-07
0.360	1.3191E-07
0.370	7.4545E-08
0.380	4.8774E-08
0.390	3.4328E-08
0.400	2.2360E-08
0.420	1.6753E-08
0.440	1.7551E-08
0.460	1.4672E-08
0.480	1.5310E-08
0.500	1.1955E-08
0.550	8.7623E-09
0.600	1.4345E-08
0.650	1.5541E-08
0.700	1.6736E-08
