Material: glass / ohara / BSM24
Optical constants. OHARA Zemax catalog 2017-11-30 (obtained from http://www.ohara-inc.co.jp)See also OHARA glass data sheets
Specs: {"n_absolute": false, "wavelength_vacuum": false, "temperature": "25.0 °C", "thermal_dispersion": [{"type": "Schott formula", "coefficients": "5.26e-06 0.0 0.0 0.0 0.0 0.0"}], "nd": 1.617646, "Vd": 55.049782, "glass_code": 618551, "glass_status": "preferred", "density": "3.63 g/cm3", "thermal_expansion": [{"temperature_range": "-30 70 °C", "coefficient": "6.5e-06 K-1"}, {"temperature_range": "20 300 °C", "coefficient": "7.6e-06 K-1"}], "dPgF": -0.0021, "acid_resistance": 51.2, "phosphate_resistance": 2.2}
Dispersion formula 3, range 0.3 2.4 um, coefficients 2.56958 -0.0086466584 2 0.016903144 -2 7.624944e-05 -4 2.6138532e-05 -6 -7.4670354e-07 -8
wavelength (um)	k
0.320	8.9294E-06
0.330	4.2265E-06
0.340	2.1605E-06
0.350	1.1573E-06
0.360	6.3926E-07
0.370	3.4312E-07
0.380	2.0647E-07
0.390	1.3641E-07
0.400	8.0589E-08
0.420	4.3734E-08
0.440	3.8729E-08
0.460	2.9402E-08
0.480	2.2987E-08
0.500	1.9944E-08
0.550	1.3150E-08
0.600	1.9137E-08
0.650	2.5928E-08
0.700	2.7922E-08
0.800	3.8312E-08
0.900	5.7526E-08
