Material: glass / ohara / BSM4
Optical constants. OHARA Zemax catalog 2017-11-30 (obtained from http://www.ohara-inc.co.jp)See also OHARA glass data sheets
Specs: {"n_absolute": false, "wavelength_vacuum": false, "temperature": "25.0 °C", "thermal_dispersion": [{"type": "Schott formula", "coefficients": "4.8681e-06 0.0 0.0 0.0 0.0 0.0"}], "nd": 1.612716, "Vd": 58.749129, "glass_code": 613588, "glass_status": "preferred", "density": "3.55 g/cm3", "thermal_expansion": [{"temperature_range": "-30 70 °C", "coefficient": "6.6e-06 K-1"}, {"temperature_range": "20 300 °C", "coefficient": "7.6e-06 K-1"}], "dPgF": -0.0014}
Dispersion formula 3, range 0.365 0.9 um, coefficients 2.559693 -0.01014464 2 0.01426178 -2 0.0004753199 -4 -3.128766e-05 -6 1.735988e-06 -8
wavelength (um)	k
0.360	2.0790E-07
0.370	1.2019E-07
0.380	7.3460E-08
0.390	5.0058E-08
0.400	3.1991E-08
0.420	2.0114E-08
0.440	2.1072E-08
0.460	1.8349E-08
0.480	1.5310E-08
0.500	1.1955E-08
0.550	8.7623E-09
0.600	1.4345E-08
0.650	1.5541E-08
0.700	1.6736E-08
