Material: glass / ohara / BSM7
Optical constants. OHARA Zemax catalog 2017-11-30 (obtained from http://www.ohara-inc.co.jp)See also OHARA glass data sheets
Specs: {"n_absolute": false, "wavelength_vacuum": false, "temperature": "25.0 °C", "thermal_dispersion": [{"type": "Schott formula", "coefficients": "2.929e-06 0.0 0.0 0.0 0.0 0.0"}], "nd": 1.607291, "Vd": 59.375631, "glass_code": 607594, "glass_status": "preferred", "density": "3.51 g/cm3", "thermal_expansion": [{"temperature_range": "-30 70 °C", "coefficient": "6.5e-06 K-1"}, {"temperature_range": "20 300 °C", "coefficient": "7.6e-06 K-1"}], "dPgF": -0.0017, "acid_resistance": 51.2, "phosphate_resistance": 2.2}
Dispersion formula 3, range 0.3 2.4 um, coefficients 2.5432134 -0.0102068 2 0.013983216 -2 0.00045963235 -4 -3.2963243e-05 -6 1.9413424e-06 -8
wavelength (um)	k
0.300	5.7485E-06
0.310	3.5206E-06
0.320	2.1492E-06
0.330	1.2981E-06
0.340	7.4253E-07
0.350	4.2007E-07
0.360	2.3265E-07
0.370	1.3865E-07
0.380	8.5878E-08
0.390	6.2700E-08
0.400	4.1652E-08
0.420	2.6846E-08
0.440	2.4596E-08
0.460	2.2030E-08
0.480	1.5310E-08
0.500	1.1955E-08
0.550	8.7623E-09
0.600	1.4345E-08
0.650	1.5541E-08
0.700	1.6736E-08
