Material: glass / ohara / BSM71
Optical constants. OHARA Zemax catalog 2017-11-30 (obtained from http://www.ohara-inc.co.jp)See also OHARA glass data sheets
Specs: {"n_absolute": false, "wavelength_vacuum": false, "temperature": "25.0 Â°C", "nd": 1.648497, "Vd": 53.035185, "glass_code": 649530, "glass_status": "preferred"}
Dispersion formula 3, range 0.334 2.325 um, coefficients 2.6654566 -0.0093666483 2 0.018458132 -2 0.00016162509 -4 2.0907914e-05 -6 -1.3617346e-07 -8
wavelength (um)	k
0.334	-0.0000E+00
0.350	-0.0000E+00
0.365	-0.0000E+00
0.370	-0.0000E+00
0.380	-0.0000E+00
0.390	-0.0000E+00
0.400	-0.0000E+00
0.420	-0.0000E+00
0.460	-0.0000E+00
0.500	-0.0000E+00
0.660	-0.0000E+00
1.060	-0.0000E+00
1.529	-0.0000E+00
2.325	-0.0000E+00
