Material: glass / ohara / FSL3
Optical constants. OHARA Zemax catalog 2017-11-30 (obtained from http://www.ohara-inc.co.jp)See also OHARA glass data sheets
Specs: {"n_absolute": false, "wavelength_vacuum": false, "temperature": "25.0 °C", "thermal_dispersion": [{"type": "Schott formula", "coefficients": "-4.652e-06 0.0 0.0 0.0 0.0 0.0"}], "nd": 1.464499, "Vd": 65.938855, "glass_code": 465659, "glass_status": "preferred", "density": "2.25 g/cm3", "thermal_expansion": [{"temperature_range": "-30 70 °C", "coefficient": "7.9e-06 K-1"}, {"temperature_range": "20 300 °C", "coefficient": "9.3e-06 K-1"}], "dPgF": -0.002, "acid_resistance": 52.0, "phosphate_resistance": 2.0}
Dispersion formula 3, range 0.3 2.4 um, coefficients 2.1205655 -0.0089437249 2 0.0090242393 -2 0.00013786285 -4 -8.2750398e-07 -6 2.6740448e-08 -8
wavelength (um)	k
0.300	6.7165E-06
0.310	3.7352E-06
0.320	2.0906E-06
0.330	1.1313E-06
0.340	6.3778E-07
0.350	3.5604E-07
0.360	1.8642E-07
0.370	1.0185E-07
0.380	7.6560E-08
0.390	4.3756E-08
0.400	3.1991E-08
0.420	2.3478E-08
0.440	2.4596E-08
0.460	1.8349E-08
0.480	1.5310E-08
0.500	1.1955E-08
0.550	8.7623E-09
0.600	1.4345E-08
0.650	1.5541E-08
0.700	1.1152E-08
