Material: glass / ohara / FTL10
Optical constants. OHARA Zemax catalog 2017-11-30 (obtained from http://www.ohara-inc.co.jp)See also OHARA glass data sheets
Specs: {"n_absolute": false, "wavelength_vacuum": false, "temperature": "25.0 °C", "thermal_dispersion": [{"type": "Schott formula", "coefficients": "-5.4465e-06 0.0 0.0 0.0 0.0 0.0"}], "nd": 1.501372, "Vd": 56.399833, "glass_code": 501564, "glass_status": "preferred", "density": "2.53 g/cm3", "thermal_expansion": [{"temperature_range": "-30 70 °C", "coefficient": "9.2e-06 K-1"}, {"temperature_range": "20 300 °C", "coefficient": "1.04e-05 K-1"}], "dPgF": 0.0035}
Dispersion formula 3, range 0.365 0.9 um, coefficients 2.222325 -0.008576053 2 0.0109677 -2 0.0004169366 -4 -2.746341e-05 -6 2.170253e-06 -8
wavelength (um)	k
0.380	2.6202E-07
0.390	1.2023E-07
0.400	6.4307E-08
0.420	3.3591E-08
0.440	2.8124E-08
0.460	1.8349E-08
0.480	1.5310E-08
0.500	1.1955E-08
0.550	8.7623E-09
0.600	1.4345E-08
0.650	1.5541E-08
0.700	1.1152E-08
