Material: glass / ohara / L-BAL43
Optical constants. OHARA Zemax catalog 2017-11-30 (obtained from http://www.ohara-inc.co.jp)See also OHARA glass data sheets
Comments: Low Softening Temperature
Specs: {"n_absolute": false, "wavelength_vacuum": false, "temperature": "25.0 °C", "thermal_dispersion": [{"type": "Schott formula", "coefficients": "3.03e-06 9.62e-09 -1.13e-11 4.9e-07 5.73e-10 0.199"}], "nd": 1.585729, "Vd": 59.69698, "density": "3.05 g/cm3", "thermal_expansion": [{"temperature_range": "-30 70 °C", "coefficient": "7.2e-06 K-1"}], "dPgF": 0.5415, "climatic_resistance": 3.0, "acid_resistance": 51.4, "phosphate_resistance": 2.0}
Dispersion formula 2, range 0.3 2.4 um, coefficients 0 1.04745291 0.00563209756 0.428452873 0.0188321416 1.14111303 114.197069
wavelength (um)	k
0.300	2.9552E-06
0.310	1.6611E-06
0.320	9.0827E-07
0.330	4.8931E-07
0.340	2.6709E-07
0.350	1.4580E-07
0.360	8.4307E-08
0.370	5.0485E-08
0.380	3.6507E-08
0.390	3.1191E-08
0.400	1.2758E-08
0.420	1.0042E-08
0.440	1.4034E-08
0.460	7.3285E-09
0.480	3.8216E-09
0.500	3.9809E-09
0.550	4.3790E-09
0.600	4.7770E-09
0.650	5.1751E-09
0.700	5.5732E-09
0.800	6.3694E-09
0.900	7.1656E-09
1.000	7.9617E-09
1.200	9.5541E-09
1.400	7.8260E-08
1.600	3.8255E-08
1.800	1.7293E-07
2.000	4.0295E-07
2.200	1.5743E-06
2.400	3.3299E-06
