Material: glass / ohara / L-LAH85V
Optical constants. OHARA Zemax catalog 2017-11-30 (obtained from http://www.ohara-inc.co.jp)See also OHARA glass data sheets
Comments: Low Softening Temperature
Specs: {"n_absolute": false, "wavelength_vacuum": false, "temperature": "25.0 °C", "thermal_dispersion": [{"type": "Schott formula", "coefficients": "5.8e-06 1.01e-08 -1.47e-11 7.72e-07 7.64e-10 0.232"}], "nd": 1.854, "Vd": 40.378368, "density": "5.25 g/cm3", "thermal_expansion": [{"temperature_range": "-30 70 °C", "coefficient": "6.3e-06 K-1"}], "dPgF": -0.0073, "climatic_resistance": 4.0, "acid_resistance": 3.2, "phosphate_resistance": 1.0}
Dispersion formula 2, range 0.365 2.325 um, coefficients 0 1.97460503 0.0101854258 0.361903592 0.0384829118 1.38433241 103.713627
wavelength (um)	k
0.340	8.1054E-06
0.350	3.3533E-06
0.360	1.5605E-06
0.370	7.6955E-07
0.380	4.5608E-07
0.390	2.7569E-07
0.400	1.8344E-07
0.420	9.8359E-08
0.440	6.7167E-08
0.460	4.7899E-08
0.480	3.0681E-08
0.500	1.9944E-08
0.550	4.3790E-09
0.600	4.7770E-09
0.650	5.1751E-09
0.700	5.5732E-09
0.800	6.3694E-09
0.900	7.1656E-09
1.000	7.9617E-09
1.200	9.5541E-09
1.400	1.1146E-08
1.600	2.5490E-08
1.800	1.1505E-07
2.000	4.3563E-07
2.200	1.2141E-06
2.400	4.9917E-06
