Material: glass / ohara / L-LAH90
Optical constants. OHARA Zemax catalog 2017-11-30 (obtained from http://www.ohara-inc.co.jp)See also OHARA glass data sheets
Comments: Low Softening Temperature
Specs: {"n_absolute": false, "wavelength_vacuum": false, "temperature": "25.0 °C", "thermal_dispersion": [{"type": "Schott formula", "coefficients": "5.28e-06 1.08e-08 3.8e-14 8.31e-07 7.62e-10 0.217"}], "nd": 1.8322, "Vd": 40.097595, "density": "4.65 g/cm3", "thermal_expansion": [{"temperature_range": "-30 70 °C", "coefficient": "6.3e-06 K-1"}], "dPgF": -0.0052, "climatic_resistance": 2.0, "acid_resistance": 5.2, "phosphate_resistance": 1.2}
Dispersion formula 2, range 0.28 2.4 um, coefficients 0 1.97595301 0.0104276395 0.283924985 0.0427708222 1.35176368 101.45371
wavelength (um)	k
0.340	8.1054E-06
0.350	3.7519E-06
0.360	1.7127E-06
0.370	9.2662E-07
0.380	5.2723E-07
0.390	3.1666E-07
0.400	2.1053E-07
0.420	1.1561E-07
0.440	7.7891E-08
0.460	5.5324E-08
0.480	3.8389E-08
0.500	2.3945E-08
0.550	8.7623E-09
0.600	9.5589E-09
0.650	1.0355E-08
0.700	5.5732E-09
0.800	6.3694E-09
0.900	1.4338E-08
1.000	2.3909E-08
1.200	2.8691E-08
1.400	4.4653E-08
1.600	7.6624E-08
1.800	1.7293E-07
2.000	5.0119E-07
2.200	1.3649E-06
2.400	5.4943E-06
