Material: glass / ohara / LAH66
Optical constants. OHARA Zemax catalog 2017-11-30 (obtained from http://www.ohara-inc.co.jp)See also OHARA glass data sheets
Specs: {"n_absolute": false, "wavelength_vacuum": false, "temperature": "25.0 Â°C", "nd": 1.772499, "Vd": 49.60134, "glass_code": 773496, "glass_status": "preferred"}
Dispersion formula 3, range 0.334 2.325 um, coefficients 3.0731081 -0.015043205 2 0.023933518 -2 0.00055696651 -4 -1.0082346e-05 -6 1.1873265e-06 -8
wavelength (um)	k
0.334	-0.0000E+00
0.350	-0.0000E+00
0.365	-0.0000E+00
0.370	-0.0000E+00
0.380	-0.0000E+00
0.390	-0.0000E+00
0.400	-0.0000E+00
0.420	-0.0000E+00
0.460	-0.0000E+00
0.500	-0.0000E+00
0.660	-0.0000E+00
1.060	-0.0000E+00
1.529	-0.0000E+00
2.325	-0.0000E+00
