Material: glass / ohara / LAM52
Optical constants. OHARA Zemax catalog 2017-11-30 (obtained from http://www.ohara-inc.co.jp)See also OHARA glass data sheets
Specs: {"n_absolute": false, "wavelength_vacuum": false, "temperature": "25.0 °C", "thermal_dispersion": [{"type": "Schott formula", "coefficients": "-8.8015e-07 0.0 0.0 0.0 0.0 0.0"}], "nd": 1.72, "Vd": 43.705625, "glass_code": 720437, "glass_status": "preferred", "density": "4.15 g/cm3", "thermal_expansion": [{"temperature_range": "-30 70 °C", "coefficient": "8e-06 K-1"}, {"temperature_range": "20 300 °C", "coefficient": "9.1e-06 K-1"}], "dPgF": -0.0008}
Dispersion formula 3, range 0.365 0.9 um, coefficients 2.888081 -0.01133043 2 0.02306135 -2 0.001004485 -4 -5.630208e-05 -6 5.248466e-06 -8
wavelength (um)	k
0.400	3.1774E-07
0.420	1.4690E-07
0.440	9.5838E-08
0.460	7.3953E-08
0.480	5.3854E-08
0.500	3.5972E-08
0.550	2.1939E-08
0.600	2.8734E-08
0.650	3.1129E-08
0.700	2.7922E-08
0.800	1.9127E-08
0.900	1.4338E-08
