Material: glass / ohara / LAM58
Optical constants. OHARA Zemax catalog 2017-11-30 (obtained from http://www.ohara-inc.co.jp)See also OHARA glass data sheets
Specs: {"n_absolute": false, "wavelength_vacuum": false, "temperature": "25.0 °C", "thermal_dispersion": [{"type": "Schott formula", "coefficients": "7.5415e-06 0.0 0.0 0.0 0.0 0.0"}], "nd": 1.72, "Vd": 41.989859, "glass_code": 720420, "glass_status": "preferred", "density": "4.26 g/cm3", "thermal_expansion": [{"temperature_range": "-30 70 °C", "coefficient": "6.6e-06 K-1"}, {"temperature_range": "20 300 °C", "coefficient": "7.7e-06 K-1"}], "dPgF": -0.0009, "acid_resistance": 5.2, "phosphate_resistance": 1.2}
Dispersion formula 2, range 0.3 2.4 um, coefficients 0 1.704423 0.01024939 0.1778568 0.04576819 1.425726 153.5267
wavelength (um)	k
0.350	7.8359E-06
0.360	3.1761E-06
0.370	1.4554E-06
0.380	7.1281E-07
0.390	3.9673E-07
0.400	2.2416E-07
0.420	9.8359E-08
0.440	6.7167E-08
0.460	4.7899E-08
0.480	3.4533E-08
0.500	2.3945E-08
0.550	8.7623E-09
0.600	9.5589E-09
0.650	1.0355E-08
0.700	1.1152E-08
0.800	6.3694E-09
0.900	1.4338E-08
1.000	7.9617E-09
1.200	9.5541E-09
1.400	2.2304E-08
1.600	2.5490E-08
1.800	1.0062E-07
2.400	1.5032E-06
