Material: glass / ohara / NSL5
Optical constants. OHARA Zemax catalog 2017-11-30 (obtained from http://www.ohara-inc.co.jp)See also OHARA glass data sheets
Specs: {"n_absolute": false, "wavelength_vacuum": false, "temperature": "25.0 °C", "thermal_dispersion": [{"type": "Schott formula", "coefficients": "-1.9066e-06 0.0 0.0 0.0 0.0 0.0"}], "nd": 1.522494, "Vd": 59.790926, "glass_code": 522598, "glass_status": "preferred", "density": "2.56 g/cm3", "thermal_expansion": [{"temperature_range": "-30 70 °C", "coefficient": "8.2e-06 K-1"}, {"temperature_range": "20 300 °C", "coefficient": "9.6e-06 K-1"}], "dPgF": 0.0003}
Dispersion formula 3, range 0.365 0.9 um, coefficients 2.284302 -0.008132863 2 0.01240948 -2 -7.446766e-06 -4 2.86937e-05 -6 -1.237616e-06 -8
wavelength (um)	k
0.340	2.4627E-07
0.350	1.2824E-07
0.360	6.6660E-08
0.370	4.4500E-08
0.380	4.2634E-08
0.390	2.1801E-08
0.400	1.2758E-08
0.420	1.3396E-08
0.440	1.7551E-08
0.460	1.4672E-08
0.480	1.5310E-08
0.500	1.1955E-08
0.550	8.7623E-09
0.600	1.4345E-08
0.650	2.0732E-08
0.700	1.6736E-08
0.800	1.9127E-08
0.900	2.5111E-08
