Material: glass / ohara / NSL7
Optical constants. OHARA Zemax catalog 2017-11-30 (obtained from http://www.ohara-inc.co.jp)See also OHARA glass data sheets
Specs: {"n_absolute": false, "wavelength_vacuum": false, "temperature": "25.0 °C", "thermal_dispersion": [{"type": "Schott formula", "coefficients": "-1.541e-07 0.0 0.0 0.0 0.0 0.0"}], "nd": 1.511121, "Vd": 60.485793, "glass_code": 511605, "glass_status": "preferred", "density": "2.49 g/cm3", "thermal_expansion": [{"temperature_range": "-30 70 °C", "coefficient": "9e-06 K-1"}, {"temperature_range": "20 300 °C", "coefficient": "1.02e-05 K-1"}], "acid_resistance": 1.0, "phosphate_resistance": 1.0}
Dispersion formula 3, range 0.3 2.4 um, coefficients 2.2524157 -0.008626195 2 0.011155352 -2 0.00020721565 -4 -2.6893015e-07 -6 3.8724966e-08 -8
wavelength (um)	k
0.300	4.8707E-06
0.310	2.1400E-06
0.320	9.0827E-07
0.330	3.9607E-07
0.340	1.6166E-07
0.350	7.3374E-08
0.360	4.0390E-08
0.370	3.2567E-08
0.380	3.6507E-08
0.390	1.8677E-08
0.400	1.2758E-08
0.420	1.6753E-08
0.440	2.1072E-08
0.460	1.8349E-08
0.480	1.5310E-08
0.500	1.1955E-08
0.550	1.3150E-08
0.600	1.4345E-08
0.650	2.0732E-08
0.700	1.6736E-08
0.800	1.2745E-08
0.900	2.1518E-08
