Material: glass / ohara / PBH10
Optical constants. OHARA Zemax catalog 2017-11-30 (obtained from http://www.ohara-inc.co.jp)See also OHARA glass data sheets
Specs: {"n_absolute": false, "wavelength_vacuum": false, "temperature": "25.0 °C", "thermal_dispersion": [{"type": "Schott formula", "coefficients": "1.198e-05 0.0 0.0 0.0 0.0 0.0"}], "nd": 1.728249, "Vd": 28.4623, "glass_code": 728285, "glass_status": "preferred", "density": "4.33 g/cm3", "thermal_expansion": [{"temperature_range": "-30 70 °C", "coefficient": "7.1e-06 K-1"}, {"temperature_range": "20 300 °C", "coefficient": "8.1e-06 K-1"}], "dPgF": 0.0088, "acid_resistance": 1.0, "phosphate_resistance": 1.0}
Dispersion formula 3, range 0.3 2.4 um, coefficients 2.8778739 -0.010244063 2 0.033846634 -2 0.0018336135 -4 -7.8721902e-05 -6 1.4142908e-05 -8
wavelength (um)	k
0.370	1.0325E-05
0.380	3.8494E-06
0.390	1.5341E-06
0.400	7.1029E-07
0.420	1.9261E-07
0.440	9.5838E-08
0.460	5.9043E-08
0.480	4.2250E-08
0.500	2.7950E-08
0.550	1.3150E-08
0.600	1.9137E-08
0.650	2.5928E-08
0.700	2.2326E-08
0.800	6.3694E-09
0.900	7.1656E-09
