Material: glass / ohara / PBH13
Optical constants. OHARA Zemax catalog 2017-11-30 (obtained from http://www.ohara-inc.co.jp)See also OHARA glass data sheets
Specs: {"n_absolute": false, "wavelength_vacuum": false, "temperature": "25.0 °C", "thermal_dispersion": [{"type": "Schott formula", "coefficients": "1.094e-05 0.0 0.0 0.0 0.0 0.0"}], "nd": 1.740769, "Vd": 27.793228, "glass_code": 741278, "glass_status": "preferred", "density": "4.44 g/cm3", "thermal_expansion": [{"temperature_range": "-30 70 °C", "coefficient": "7.3e-06 K-1"}, {"temperature_range": "20 300 °C", "coefficient": "8.4e-06 K-1"}], "dPgF": 0.0097, "acid_resistance": 1.2, "phosphate_resistance": 2.0}
Dispersion formula 3, range 0.3 2.4 um, coefficients 2.9161406 -0.010147718 2 0.035077729 -2 0.0020869984 -4 -0.00011077712 -6 1.7236453e-05 -8
wavelength (um)	k
0.370	1.0325E-05
0.380	3.9594E-06
0.390	1.5854E-06
0.400	7.5033E-07
0.420	2.2106E-07
0.440	1.1388E-07
0.460	7.0220E-08
0.480	4.6114E-08
0.500	3.1959E-08
0.550	1.3150E-08
0.600	1.9137E-08
0.650	3.1129E-08
0.700	2.2326E-08
0.800	6.3694E-09
0.900	7.1656E-09
