Material: glass / ohara / PBH11W
Optical constants. OHARA Zemax catalog 2017-11-30 (obtained from http://www.ohara-inc.co.jp)See also OHARA glass data sheets
Comments: Improved Transmittance
Specs: {"n_absolute": false, "wavelength_vacuum": false, "temperature": "25.0 °C", "nd": 1.784718, "Vd": 25.712726, "glass_code": 785257, "glass_status": "preferred", "density": "4.79 g/cm3", "thermal_expansion": [{"temperature_range": "-30 70 °C", "coefficient": "7.4e-06 K-1"}, {"temperature_range": "20 300 °C", "coefficient": "8.4e-06 K-1"}], "dPgF": 0.0129, "acid_resistance": 1.2, "phosphate_resistance": 1.2}
Dispersion formula 3, range 0.3 2.4 um, coefficients 3.0523317 -0.010699896 2 0.040026761 -2 0.0027411266 -4 -0.00016825655 -6 2.453957e-05 -8
wavelength (um)	k
0.380	6.9629E-06
0.390	2.7671E-06
0.400	1.1353E-06
0.420	2.8232E-07
0.440	1.1388E-07
0.460	6.6490E-08
0.480	4.2250E-08
0.500	2.7950E-08
0.550	1.3150E-08
0.600	1.4345E-08
0.650	2.5928E-08
0.700	1.6736E-08
