Material: glass / ohara / PBH25
Optical constants. OHARA Zemax catalog 2017-11-30 (obtained from http://www.ohara-inc.co.jp)See also OHARA glass data sheets
Comments: Leaded
Specs: {"n_absolute": false, "wavelength_vacuum": false, "temperature": "25.0 °C", "thermal_dispersion": [{"type": "Schott formula", "coefficients": "1.331e-05 0.0 0.0 0.0 0.0 0.0"}], "nd": 1.761797, "Vd": 27.107724, "glass_code": 762271, "glass_status": "preferred", "density": "4.79 g/cm3", "thermal_expansion": [{"temperature_range": "-30 70 °C", "coefficient": "7.5e-06 K-1"}, {"temperature_range": "20 300 °C", "coefficient": "8.5e-06 K-1"}], "dPgF": 0.0085, "acid_resistance": 3.2, "phosphate_resistance": 2.2}
Dispersion formula 3, range 0.3 2.4 um, coefficients 2.9830277 -0.010435952 2 0.036346467 -2 0.0026194115 -4 -0.00017513176 -6 2.1325099e-05 -8
wavelength (um)	k
0.360	1.3193E-05
0.370	4.8898E-06
0.380	2.1571E-06
0.390	1.0629E-06
0.400	5.9311E-07
0.420	2.4255E-07
0.440	1.2838E-07
0.460	7.7690E-08
0.480	4.9982E-08
0.500	3.1959E-08
0.550	1.3150E-08
0.600	1.9137E-08
0.650	2.5928E-08
0.700	2.2326E-08
0.800	6.3694E-09
0.900	7.1656E-09
