Material: glass / ohara / PBH23
Optical constants. OHARA Zemax catalog 2017-11-30 (obtained from http://www.ohara-inc.co.jp)See also OHARA glass data sheets
Specs: {"n_absolute": false, "wavelength_vacuum": false, "temperature": "25.0 °C", "thermal_dispersion": [{"type": "Schott formula", "coefficients": "1.457e-05 0.0 0.0 0.0 0.0 0.0"}], "nd": 1.784702, "Vd": 26.216753, "glass_code": 785262, "glass_status": "preferred", "density": "4.99 g/cm3", "thermal_expansion": [{"temperature_range": "-30 70 °C", "coefficient": "7.5e-06 K-1"}, {"temperature_range": "20 300 °C", "coefficient": "8.7e-06 K-1"}], "dPgF": 0.0092, "acid_resistance": 3.2, "phosphate_resistance": 3.0}
Dispersion formula 3, range 0.3 2.4 um, coefficients 3.0554324 -0.010867434 2 0.038522891 -2 0.0030173971 -4 -0.0002129474 -6 2.4864803e-05 -8
wavelength (um)	k
0.370	5.2173E-06
0.380	2.1571E-06
0.390	9.7671E-07
0.400	5.1731E-07
0.420	1.7848E-07
0.440	8.8648E-08
0.460	5.1610E-08
0.480	3.0681E-08
0.500	1.9944E-08
0.550	8.7623E-09
0.600	9.5589E-09
0.650	1.5541E-08
0.700	1.1152E-08
0.800	6.3694E-09
0.900	7.1656E-09
