Material: glass / ohara / PBH3W
Optical constants. OHARA Zemax catalog 2017-11-30 (obtained from http://www.ohara-inc.co.jp)See also OHARA glass data sheets
Comments: Improved Transmittance
Specs: {"n_absolute": false, "wavelength_vacuum": false, "temperature": "25.0 °C", "thermal_dispersion": [{"type": "Schott formula", "coefficients": "1.163e-05 0.0 0.0 0.0 0.0 0.0"}], "nd": 1.739998, "Vd": 28.287409, "glass_code": 740283, "glass_status": "preferred", "density": "4.66 g/cm3", "thermal_expansion": [{"temperature_range": "-30 70 °C", "coefficient": "8.2e-06 K-1"}, {"temperature_range": "20 300 °C", "coefficient": "9.2e-06 K-1"}], "dPgF": 0.006, "acid_resistance": 3.2, "phosphate_resistance": 3.0}
Dispersion formula 3, range 0.3 2.4 um, coefficients 2.9157717 -0.0100817 2 0.03409894 -2 0.0021965014 -4 -0.00012386955 -6 1.5766843e-05 -8
wavelength (um)	k
0.340	1.2460E-05
0.350	4.6255E-06
0.360	1.7127E-06
0.370	8.0804E-07
0.380	4.2112E-07
0.390	2.5878E-07
0.400	1.6327E-07
0.420	7.7770E-08
0.440	4.5817E-08
0.460	3.3094E-08
0.480	2.2987E-08
0.500	1.5947E-08
0.550	8.7623E-09
0.600	9.5589E-09
0.650	1.0355E-08
0.700	1.1152E-08
0.800	6.3694E-09
0.900	7.1656E-09
