Material: glass / ohara / PBH4
Optical constants. OHARA Zemax catalog 2017-11-30 (obtained from http://www.ohara-inc.co.jp)See also OHARA glass data sheets
Specs: {"n_absolute": false, "wavelength_vacuum": false, "temperature": "25.0 °C", "thermal_dispersion": [{"type": "Schott formula", "coefficients": "1.208e-05 0.0 0.0 0.0 0.0 0.0"}], "nd": 1.755199, "Vd": 27.512146, "glass_code": 755275, "glass_status": "preferred", "density": "4.78 g/cm3", "thermal_expansion": [{"temperature_range": "-30 70 °C", "coefficient": "7.9e-06 K-1"}, {"temperature_range": "20 300 °C", "coefficient": "8.9e-06 K-1"}], "dPgF": 0.0074, "acid_resistance": 4.2, "phosphate_resistance": 1.0}
Dispersion formula 3, range 0.3 2.4 um, coefficients 2.961379 -0.0098262329 2 0.036779565 -2 0.0020712902 -4 -9.3348652e-05 -6 1.5491439e-05 -8
wavelength (um)	k
0.350	8.3437E-06
0.360	3.3552E-06
0.370	1.5535E-06
0.380	8.2988E-07
0.390	5.0438E-07
0.400	2.9321E-07
0.420	1.3296E-07
0.440	7.4313E-08
0.460	5.1610E-08
0.480	3.4533E-08
0.500	2.3945E-08
0.550	8.7623E-09
0.600	1.4345E-08
0.650	2.5928E-08
0.700	1.6736E-08
0.800	6.3694E-09
0.900	7.1656E-09
