Material: glass / ohara / PBH53
Optical constants. OHARA Zemax catalog 2017-11-30 (obtained from http://www.ohara-inc.co.jp)See also OHARA glass data sheets
Specs: {"n_absolute": false, "wavelength_vacuum": false, "temperature": "25.0 °C", "thermal_dispersion": [{"type": "Schott formula", "coefficients": "1.722e-05 0.0 0.0 0.0 0.0 0.0"}], "nd": 1.846658, "Vd": 23.885544, "glass_code": 847239, "glass_status": "preferred", "density": "5.53 g/cm3", "thermal_expansion": [{"temperature_range": "-30 70 °C", "coefficient": "7.8e-06 K-1"}, {"temperature_range": "20 300 °C", "coefficient": "8.7e-06 K-1"}], "dPgF": 0.0134, "acid_resistance": 52.2, "phosphate_resistance": 3.2}
Dispersion formula 3, range 0.3 2.4 um, coefficients 3.2498918 -0.010466366 2 0.048000686 -2 0.0031859922 -4 -0.00015447369 -6 2.6258671e-05 -8
wavelength (um)	k
0.360	1.3193E-05
0.370	4.8898E-06
0.380	2.3482E-06
0.390	1.3369E-06
0.400	7.9088E-07
0.420	3.1889E-07
0.440	1.5024E-07
0.460	7.7690E-08
0.480	4.2250E-08
0.500	2.3945E-08
0.550	8.7623E-09
0.600	9.5589E-09
0.650	1.0355E-08
0.700	5.5732E-09
