Material: glass / ohara / PBL1Y
Optical constants. OHARA Zemax catalog 2017-11-30 (obtained from http://www.ohara-inc.co.jp)See also OHARA glass data sheets
Comments: Improved XMT at 365
Specs: {"n_absolute": false, "wavelength_vacuum": false, "temperature": "25.0 °C", "thermal_dispersion": [{"type": "Schott formula", "coefficients": "-1.01e-06 1.18e-08 -4.19e-11 6.98e-07 6.69e-10 0.226"}], "nd": 1.548141, "Vd": 45.733282, "glass_code": 548457, "density": "2.95 g/cm3", "thermal_expansion": [{"temperature_range": "-30 70 °C", "coefficient": "9.3e-06 K-1"}, {"temperature_range": "20 300 °C", "coefficient": "1.06e-05 K-1"}], "dPgF": -0.0019, "climatic_resistance": 2.0, "acid_resistance": 1.0, "phosphate_resistance": 1.1}
Dispersion formula 2, range 0.31 2.4 um, coefficients 0 1.24772961 0.00926606623 0.101954909 0.0451754311 0.350479619 45.0186705
wavelength (um)	k
0.310	3.0537E-06
0.320	5.6823E-07
0.330	1.2367E-07
0.340	3.2664E-08
0.350	1.3961E-08
0.360	8.6073E-09
0.370	5.8946E-09
0.380	6.0539E-09
0.390	3.1051E-09
0.400	3.1847E-09
0.420	3.3439E-09
0.440	3.5032E-09
0.460	3.6624E-09
0.480	3.8216E-09
0.500	3.9809E-09
0.550	4.3790E-09
0.600	4.7770E-09
0.650	5.1751E-09
0.700	5.5732E-09
0.800	6.3694E-09
0.900	7.1656E-09
1.000	7.9617E-09
1.200	9.5541E-09
1.400	2.2304E-08
1.600	5.1032E-08
1.800	2.4560E-07
2.000	6.4970E-07
2.200	1.4788E-06
2.400	2.4414E-06
