Material: glass / ohara / PBL27
Optical constants. OHARA Zemax catalog 2017-11-30 (obtained from http://www.ohara-inc.co.jp)See also OHARA glass data sheets
Specs: {"n_absolute": false, "wavelength_vacuum": false, "temperature": "25.0 °C", "thermal_dispersion": [{"type": "Schott formula", "coefficients": "4.819e-06 0.0 0.0 0.0 0.0 0.0"}], "nd": 1.575006, "Vd": 41.491052, "glass_code": 575415, "glass_status": "preferred", "density": "3.2 g/cm3", "thermal_expansion": [{"temperature_range": "-30 70 °C", "coefficient": "7.6e-06 K-1"}, {"temperature_range": "20 300 °C", "coefficient": "9e-06 K-1"}], "dPgF": -0.0015, "acid_resistance": 1.0, "phosphate_resistance": 1.0}
Dispersion formula 3, range 0.3 2.4 um, coefficients 2.4269332 -0.0089789895 2 0.017578385 -2 0.00079125417 -4 -4.3016897e-05 -6 4.2474552e-06 -8
wavelength (um)	k
0.310	8.6503E-06
0.320	2.5318E-06
0.330	8.2645E-07
0.340	3.1530E-07
0.350	1.4286E-07
0.360	6.9593E-08
0.370	4.7491E-08
0.380	4.2634E-08
0.390	1.8677E-08
0.400	1.2758E-08
0.420	1.3396E-08
0.440	1.4034E-08
0.460	1.0998E-08
0.480	1.1476E-08
0.500	1.5947E-08
0.550	8.7623E-09
0.600	1.4345E-08
0.650	1.5541E-08
0.700	1.1152E-08
0.800	6.3694E-09
0.900	7.1656E-09
