Material: glass / ohara / PBL21
Optical constants. OHARA Zemax catalog 2017-11-30 (obtained from http://www.ohara-inc.co.jp)See also OHARA glass data sheets
Specs: {"n_absolute": false, "wavelength_vacuum": false, "temperature": "25.0 °C", "thermal_dispersion": [{"type": "Schott formula", "coefficients": "2.501e-06 0.0 0.0 0.0 0.0 0.0"}], "nd": 1.573092, "Vd": 42.576094, "glass_code": 573426, "glass_status": "preferred", "density": "3.17 g/cm3", "thermal_expansion": [{"temperature_range": "-30 70 °C", "coefficient": "8.5e-06 K-1"}, {"temperature_range": "20 300 °C", "coefficient": "9.5e-06 K-1"}], "dPgF": -0.0007, "acid_resistance": 1.0, "phosphate_resistance": 1.0}
Dispersion formula 3, range 0.3 2.4 um, coefficients 2.4238569 -0.0094940065 2 0.016206639 -2 0.0010105149 -4 -7.2683761e-05 -6 5.4198492e-06 -8
wavelength (um)	k
0.310	8.6503E-06
0.320	2.8232E-06
0.330	1.0912E-06
0.340	4.7174E-07
0.350	2.2619E-07
0.360	1.1396E-07
0.370	7.1527E-08
0.380	5.8008E-08
0.390	2.8058E-08
0.400	1.9156E-08
0.420	1.6753E-08
0.440	2.1072E-08
0.460	1.8349E-08
0.480	1.5310E-08
0.500	1.1955E-08
0.550	8.7623E-09
0.600	1.4345E-08
0.650	2.0732E-08
0.700	1.1152E-08
