Material: glass / ohara / PBL6
Optical constants. OHARA Zemax catalog 2017-11-30 (obtained from http://www.ohara-inc.co.jp)See also OHARA glass data sheets
Specs: {"n_absolute": false, "wavelength_vacuum": false, "temperature": "25.0 °C", "thermal_dispersion": [{"type": "Schott formula", "coefficients": "3.435e-06 0.0 0.0 0.0 0.0 0.0"}], "nd": 1.531717, "Vd": 48.904553, "glass_code": 532489, "glass_status": "preferred", "density": "2.79 g/cm3", "thermal_expansion": [{"temperature_range": "-30 70 °C", "coefficient": "8.3e-06 K-1"}, {"temperature_range": "20 300 °C", "coefficient": "9e-06 K-1"}], "dPgF": -0.0027, "acid_resistance": 1.0, "phosphate_resistance": 1.0}
Dispersion formula 3, range 0.3 2.4 um, coefficients 2.3036685 -0.0076028355 2 0.014811205 -2 0.00024182527 -4 4.8392964e-06 -6 8.9395406e-07 -8
wavelength (um)	k
0.300	1.0994E-05
0.310	3.2300E-06
0.320	1.0198E-06
0.330	3.9607E-07
0.340	1.5879E-07
0.350	7.6235E-08
0.360	4.0390E-08
0.370	3.2567E-08
0.380	3.0392E-08
0.390	1.5557E-08
0.400	9.5636E-09
0.420	1.3396E-08
0.440	1.7551E-08
0.460	1.4672E-08
0.480	1.1476E-08
0.500	1.1955E-08
0.550	8.7623E-09
0.600	1.4345E-08
0.650	1.5541E-08
0.700	1.1152E-08
