Material: glass / ohara / PBM18Y
Optical constants. OHARA Zemax catalog 2017-11-30 (obtained from http://www.ohara-inc.co.jp)See also OHARA glass data sheets
Comments: Improved XMT at 365
Specs: {"n_absolute": false, "wavelength_vacuum": false, "temperature": "25.0 °C", "thermal_dispersion": [{"type": "Schott formula", "coefficients": "1.72e-06 1.37e-08 -4.2e-11 9e-07 7.36e-10 0.236"}], "nd": 1.595509, "Vd": 38.767114, "glass_code": 596387, "density": "3.37 g/cm3", "thermal_expansion": [{"temperature_range": "-30 70 °C", "coefficient": "8.8e-06 K-1"}, {"temperature_range": "20 300 °C", "coefficient": "1e-05 K-1"}], "dPgF": -0.0018, "climatic_resistance": 2.0, "acid_resistance": 1.0, "phosphate_resistance": 2.0}
Dispersion formula 2, range 0.32 2.4 um, coefficients 0 1.34660215 0.0106313733 0.136322343 0.0491403013 0.183371587 23.9154655
wavelength (um)	k
0.320	3.8557E-06
0.330	1.0128E-06
0.340	2.4923E-07
0.350	7.0515E-08
0.360	2.8792E-08
0.370	1.4759E-08
0.380	9.0855E-09
0.390	6.2133E-09
0.400	6.3726E-09
0.420	6.6912E-09
0.440	3.5032E-09
0.460	3.6624E-09
0.480	3.8216E-09
0.500	3.9809E-09
0.550	4.3790E-09
0.600	4.7770E-09
0.650	5.1751E-09
0.700	5.5732E-09
0.800	6.3694E-09
0.900	7.1656E-09
1.000	1.5931E-08
1.200	1.9118E-08
1.400	4.4653E-08
1.600	7.6624E-08
1.800	3.0401E-07
2.000	7.1616E-07
2.200	1.7089E-06
2.400	2.6597E-06
