Material: glass / ohara / PBM28
Optical constants. OHARA Zemax catalog 2017-11-30 (obtained from http://www.ohara-inc.co.jp)See also OHARA glass data sheets
Specs: {"n_absolute": false, "wavelength_vacuum": false, "temperature": "25.0 °C", "thermal_dispersion": [{"type": "Schott formula", "coefficients": "8.284e-06 0.0 0.0 0.0 0.0 0.0"}], "nd": 1.68893, "Vd": 31.082901, "glass_code": 689311, "glass_status": "preferred", "density": "4.22 g/cm3", "thermal_expansion": [{"temperature_range": "-30 70 °C", "coefficient": "8.6e-06 K-1"}, {"temperature_range": "20 300 °C", "coefficient": "9.4e-06 K-1"}], "dPgF": 0.0031, "acid_resistance": 2.2, "phosphate_resistance": 2.0}
Dispersion formula 3, range 0.3 2.4 um, coefficients 2.75779 -0.0087331797 2 0.030379663 -2 0.0011503031 -4 -1.9167784e-05 -6 7.4745415e-06 -8
wavelength (um)	k
0.340	4.9583E-06
0.350	1.9868E-06
0.360	1.0218E-06
0.370	6.2044E-07
0.380	4.2112E-07
0.390	2.6215E-07
0.400	1.8007E-07
0.420	9.4918E-08
0.440	5.6476E-08
0.460	3.6790E-08
0.480	2.2987E-08
0.500	1.5947E-08
0.550	8.7623E-09
0.600	9.5589E-09
0.650	1.0355E-08
0.700	1.1152E-08
0.800	6.3694E-09
0.900	7.1656E-09
