Material: glass / ohara / PBM22
Optical constants. OHARA Zemax catalog 2017-11-30 (obtained from http://www.ohara-inc.co.jp)See also OHARA glass data sheets
Specs: {"n_absolute": false, "wavelength_vacuum": false, "temperature": "25.0 °C", "thermal_dispersion": [{"type": "Schott formula", "coefficients": "5.749e-06 0.0 0.0 0.0 0.0 0.0"}], "nd": 1.647689, "Vd": 33.802937, "glass_code": 648338, "glass_status": "preferred", "density": "3.85 g/cm3", "thermal_expansion": [{"temperature_range": "-30 70 °C", "coefficient": "8.8e-06 K-1"}, {"temperature_range": "20 300 °C", "coefficient": "9.8e-06 K-1"}], "dPgF": 0.0015, "acid_resistance": 2.2, "phosphate_resistance": 2.0}
Dispersion formula 3, range 0.3 2.4 um, coefficients 2.6360314 -0.0089450876 2 0.025228056 -2 0.0011120943 -4 -3.7887387e-05 -6 6.3760973e-06 -8
wavelength (um)	k
0.330	6.6327E-06
0.340	2.3471E-06
0.350	8.7654E-07
0.360	3.9896E-07
0.370	2.2001E-07
0.380	1.4557E-07
0.390	9.7732E-08
0.400	6.1061E-08
0.420	3.6968E-08
0.440	2.8124E-08
0.460	2.2030E-08
0.480	1.5310E-08
0.500	1.1955E-08
0.550	8.7623E-09
0.600	9.5589E-09
0.650	1.0355E-08
0.700	1.1152E-08
