Material: glass / ohara / PBM25
Optical constants. OHARA Zemax catalog 2017-11-30 (obtained from http://www.ohara-inc.co.jp)See also OHARA glass data sheets
Specs: {"n_absolute": false, "wavelength_vacuum": false, "temperature": "25.0 °C", "thermal_dispersion": [{"type": "Schott formula", "coefficients": "6.818e-06 0.0 0.0 0.0 0.0 0.0"}], "nd": 1.6727, "Vd": 32.101636, "glass_code": 673321, "glass_status": "preferred", "density": "4.07 g/cm3", "thermal_expansion": [{"temperature_range": "-30 70 °C", "coefficient": "8.5e-06 K-1"}, {"temperature_range": "20 300 °C", "coefficient": "9.5e-06 K-1"}], "dPgF": 0.0027, "acid_resistance": 2.2, "phosphate_resistance": 2.0}
Dispersion formula 3, range 0.3 2.4 um, coefficients 2.7107551 -0.0092889162 2 0.027542314 -2 0.0013512557 -4 -5.4563909e-05 -6 8.3261074e-06 -8
wavelength (um)	k
0.330	1.2093E-05
0.340	3.8613E-06
0.350	1.6149E-06
0.360	8.2415E-07
0.370	4.7852E-07
0.380	3.0854E-07
0.390	1.9534E-07
0.400	1.3326E-07
0.420	7.0935E-08
0.440	4.9366E-08
0.460	3.3094E-08
0.480	2.2987E-08
0.500	1.9944E-08
0.550	8.7623E-09
0.600	9.5589E-09
0.650	1.5541E-08
0.700	1.1152E-08
0.800	6.3694E-09
0.900	7.1656E-09
