Material: glass / ohara / PBM2Y
Optical constants. OHARA Zemax catalog 2017-11-30 (obtained from http://www.ohara-inc.co.jp)See also OHARA glass data sheets
Comments: Improved XMT at 365
Specs: {"n_absolute": false, "wavelength_vacuum": false, "temperature": "25.0 °C", "thermal_dispersion": [{"type": "Schott formula", "coefficients": "1.2e-06 1.69e-08 -3.38e-11 9.77e-07 7.43e-10 0.243"}], "nd": 1.620041, "Vd": 36.269263, "glass_code": 620363, "density": "3.61 g/cm3", "thermal_expansion": [{"temperature_range": "-30 70 °C", "coefficient": "8.6e-06 K-1"}, {"temperature_range": "20 300 °C", "coefficient": "9.7e-06 K-1"}], "dPgF": -0.0003, "climatic_resistance": 1.0, "acid_resistance": 1.0, "phosphate_resistance": 2.0}
Dispersion formula 2, range 0.32 2.4 um, coefficients 0 1.39446503 0.0110571872 0.159230985 0.0507194882 0.245470216 31.4440142
wavelength (um)	k
0.320	8.1968E-06
0.330	2.1559E-06
0.340	5.7013E-07
0.350	1.6051E-07
0.360	5.7876E-08
0.370	2.6619E-08
0.380	1.5158E-08
0.390	1.2439E-08
0.400	9.5636E-09
0.420	6.6912E-09
0.440	7.0098E-09
0.460	7.3285E-09
0.480	7.6471E-09
0.500	3.9809E-09
0.550	4.3790E-09
0.600	4.7770E-09
0.650	5.1751E-09
0.700	5.5732E-09
0.800	6.3694E-09
0.900	7.1656E-09
1.000	1.5931E-08
1.200	1.9118E-08
1.400	4.4653E-08
1.600	7.6624E-08
1.800	2.8938E-07
2.000	6.1658E-07
2.200	1.4407E-06
2.400	2.2256E-06
