Material: glass / ohara / PBM35
Optical constants. OHARA Zemax catalog 2017-11-30 (obtained from http://www.ohara-inc.co.jp)See also OHARA glass data sheets
Specs: {"n_absolute": false, "wavelength_vacuum": false, "temperature": "25.0 °C", "thermal_dispersion": [{"type": "Schott formula", "coefficients": "9.239e-06 0.0 0.0 0.0 0.0 0.0"}], "nd": 1.698947, "Vd": 30.121211, "glass_code": 699301, "glass_status": "preferred", "density": "4.1 g/cm3", "thermal_expansion": [{"temperature_range": "-30 70 °C", "coefficient": "7.4e-06 K-1"}, {"temperature_range": "20 300 °C", "coefficient": "8.2e-06 K-1"}], "dPgF": 0.0063, "acid_resistance": 1.0, "phosphate_resistance": 1.0}
Dispersion formula 3, range 0.3 2.4 um, coefficients 2.7934634 -0.011916323 2 0.027252732 -2 0.0026477261 -4 -0.00022721609 -6 2.0411942e-05 -8
wavelength (um)	k
0.370	6.4990E-06
0.380	2.4826E-06
0.390	9.7671E-07
0.400	4.0691E-07
0.420	1.0525E-07
0.440	5.2919E-08
0.460	3.3094E-08
0.480	2.2987E-08
0.500	1.9944E-08
0.550	1.3150E-08
0.600	1.9137E-08
0.650	2.0732E-08
0.700	1.1152E-08
