Material: glass / ohara / PBM6
Optical constants. OHARA Zemax catalog 2017-11-30 (obtained from http://www.ohara-inc.co.jp)See also OHARA glass data sheets
Specs: {"n_absolute": false, "wavelength_vacuum": false, "temperature": "25.0 °C", "thermal_dispersion": [{"type": "Schott formula", "coefficients": "6.052e-06 0.0 0.0 0.0 0.0 0.0"}], "nd": 1.636358, "Vd": 35.376536, "glass_code": 636354, "glass_status": "preferred", "density": "3.74 g/cm3", "thermal_expansion": [{"temperature_range": "-30 70 °C", "coefficient": "8.5e-06 K-1"}, {"temperature_range": "20 300 °C", "coefficient": "9.4e-06 K-1"}], "dPgF": 0.0009, "acid_resistance": 1.0, "phosphate_resistance": 2.0}
Dispersion formula 3, range 0.3 2.4 um, coefficients 2.6040004 -0.0089503263 2 0.023811801 -2 0.00097080592 -4 -3.0707494e-05 -6 5.4397201e-06 -8
wavelength (um)	k
0.330	6.0467E-06
0.340	2.2835E-06
0.350	9.9342E-07
0.360	4.9949E-07
0.370	2.6799E-07
0.380	1.6787E-07
0.390	9.7732E-08
0.400	5.7818E-08
0.420	3.0216E-08
0.440	2.4596E-08
0.460	1.8349E-08
0.480	1.5310E-08
0.500	1.1955E-08
0.550	8.7623E-09
0.600	1.4345E-08
0.650	1.5541E-08
0.700	1.1152E-08
0.800	1.2745E-08
0.900	1.4338E-08
