Material: glass / ohara / PBM9
Optical constants. OHARA Zemax catalog 2017-11-30 (obtained from http://www.ohara-inc.co.jp)See also OHARA glass data sheets
Specs: {"n_absolute": false, "wavelength_vacuum": false, "temperature": "25.0 °C", "thermal_dispersion": [{"type": "Schott formula", "coefficients": "7.208e-06 0.0 0.0 0.0 0.0 0.0"}], "nd": 1.620451, "Vd": 38.119955, "glass_code": 620381, "glass_status": "preferred", "density": "3.56 g/cm3", "thermal_expansion": [{"temperature_range": "-30 70 °C", "coefficient": "8e-06 K-1"}, {"temperature_range": "20 300 °C", "coefficient": "9.3e-06 K-1"}], "dPgF": -0.001, "acid_resistance": 2.0, "phosphate_resistance": 2.0}
Dispersion formula 3, range 0.3 2.4 um, coefficients 2.5602323 -0.0095632018 2 0.021495089 -2 0.00085071191 -4 -3.3535727e-05 -6 4.8953255e-06 -8
wavelength (um)	k
0.330	6.0467E-06
0.340	2.4123E-06
0.350	1.1573E-06
0.360	6.0367E-07
0.370	3.4312E-07
0.380	2.0971E-07
0.390	1.2346E-07
0.400	7.4066E-08
0.420	4.0350E-08
0.440	3.1655E-08
0.460	2.5714E-08
0.480	1.9146E-08
0.500	1.5947E-08
0.550	1.3150E-08
0.600	1.4345E-08
0.650	2.0732E-08
0.700	1.6736E-08
0.800	1.2745E-08
0.900	2.1518E-08
