Material: glass / ohara / S-BAL3
Optical constants. OHARA Zemax catalog 2017-11-30 (obtained from http://www.ohara-inc.co.jp)See also OHARA glass data sheets
Comments: Recommended
Specs: {"n_absolute": false, "wavelength_vacuum": false, "temperature": "25.0 °C", "thermal_dispersion": [{"type": "Schott formula", "coefficients": "-5.7e-06 1.05e-08 -3.78e-11 4.4e-07 5.55e-10 0.262"}], "nd": 1.571351, "Vd": 52.952106, "glass_code": 571530, "density": "2.98 g/cm3", "thermal_expansion": [{"temperature_range": "-30 70 °C", "coefficient": "9.5e-06 K-1"}, {"temperature_range": "20 300 °C", "coefficient": "1.11e-05 K-1"}], "dPgF": -0.0005, "climatic_resistance": 2.0, "acid_resistance": 1.2, "phosphate_resistance": 1.0}
Dispersion formula 2, range 0.33 2.4 um, coefficients 0 1.2936689 0.00800367962 0.132440252 0.0354711196 1.10197293 134.517431
wavelength (um)	k
0.330	1.2093E-05
0.340	3.6447E-06
0.350	1.2869E-06
0.360	4.9949E-07
0.370	2.2001E-07
0.380	1.1401E-07
0.390	6.5868E-08
0.400	3.8428E-08
0.420	2.0114E-08
0.440	2.1072E-08
0.460	1.8349E-08
0.480	1.5310E-08
0.500	1.1955E-08
0.550	8.7623E-09
0.600	9.5589E-09
0.650	1.0355E-08
0.700	1.1152E-08
0.800	1.2745E-08
0.900	1.4338E-08
1.000	2.3909E-08
1.200	3.8274E-08
1.400	1.0072E-07
1.600	1.2796E-07
1.800	4.0679E-07
2.000	9.0035E-07
2.200	2.2380E-06
2.400	3.5586E-06
