Material: glass / ohara / S-BAH11
Optical constants. OHARA Zemax catalog 2017-11-30 (obtained from http://www.ohara-inc.co.jp)See also OHARA glass data sheets
Comments: Recommended
Specs: {"n_absolute": false, "wavelength_vacuum": false, "temperature": "25.0 °C", "thermal_dispersion": [{"type": "Schott formula", "coefficients": "2.98e-06 1.09e-08 -3.44e-11 5.52e-07 7.15e-10 0.244"}], "nd": 1.666718, "Vd": 48.325247, "glass_code": 667483, "density": "3.59 g/cm3", "thermal_expansion": [{"temperature_range": "-30 70 °C", "coefficient": "6.9e-06 K-1"}, {"temperature_range": "20 300 °C", "coefficient": "8.2e-06 K-1"}], "dPgF": -0.0024, "climatic_resistance": 3.0, "acid_resistance": 52.2, "phosphate_resistance": 2.0}
Dispersion formula 2, range 0.34 2.4 um, coefficients 0 1.5713886 0.00910807936 0.147869313 0.0402401684 1.28092846 130.399367
wavelength (um)	k
0.340	8.7091E-06
0.350	3.6468E-06
0.360	1.6611E-06
0.370	8.4704E-07
0.380	4.5608E-07
0.390	2.5204E-07
0.400	1.5658E-07
0.420	8.4619E-08
0.440	6.3599E-08
0.460	4.7899E-08
0.480	3.4533E-08
0.500	2.3945E-08
0.550	1.3150E-08
0.600	2.3933E-08
0.650	2.5928E-08
0.700	2.2326E-08
0.800	1.9127E-08
0.900	2.1518E-08
1.000	2.3909E-08
1.200	1.9118E-08
1.400	6.7046E-08
1.600	6.3822E-08
1.800	1.7293E-07
2.000	3.8663E-07
2.200	1.1579E-06
2.400	3.3299E-06
