Material: glass / ohara / S-BAL11
Optical constants. OHARA Zemax catalog 2017-11-30 (obtained from http://www.ohara-inc.co.jp)See also OHARA glass data sheets
Comments: Recommended
Specs: {"n_absolute": false, "wavelength_vacuum": false, "temperature": "25.0 °C", "thermal_dispersion": [{"type": "Schott formula", "coefficients": "3.44e-06 1.26e-08 -4.45e-11 5.04e-07 6.25e-10 0.192"}], "nd": 1.572501, "Vd": 57.74298, "glass_code": 573578, "glass_status": "special", "density": "3.02 g/cm3", "thermal_expansion": [{"temperature_range": "-30 70 °C", "coefficient": "6.6e-06 K-1"}, {"temperature_range": "20 300 °C", "coefficient": "8e-06 K-1"}], "dPgF": -0.0024, "climatic_resistance": 2.0, "acid_resistance": 2.0, "phosphate_resistance": 1.0}
Dispersion formula 2, range 0.32 2.4 um, coefficients 0 0.821314256 0.00351436131 0.612586478 0.0179762375 1.24859637 133.45667
wavelength (um)	k
0.320	1.1727E-05
0.330	3.7477E-06
0.340	1.3374E-06
0.350	4.8561E-07
0.360	2.0175E-07
0.370	9.8803E-08
0.380	5.4927E-08
0.390	3.4328E-08
0.400	2.2360E-08
0.420	1.6753E-08
0.440	1.4034E-08
0.460	1.0998E-08
0.480	7.6471E-09
0.500	7.9657E-09
0.550	4.3790E-09
0.600	4.7770E-09
0.650	1.0355E-08
0.700	5.5732E-09
0.800	6.3694E-09
0.900	7.1656E-09
1.000	1.5931E-08
1.200	1.9118E-08
1.400	1.2323E-07
1.600	6.3822E-08
1.800	1.7293E-07
2.000	3.3778E-07
2.200	1.2893E-06
2.400	2.2256E-06
