Material: glass / ohara / S-BSM36
Optical constants. OHARA Zemax catalog 2017-11-30 (obtained from http://www.ohara-inc.co.jp)See also OHARA glass data sheets
Comments: Recommended
Specs: {"n_absolute": false, "wavelength_vacuum": false, "temperature": "25.0 °C", "thermal_dispersion": [{"type": "Schott formula", "coefficients": "-7.36e-07 1.43e-08 -2.88e-12 5.38e-07 1.11e-09 0.119"}], "nd": 1.642495, "Vd": 58.369399, "glass_code": 643584, "glass_status": "special", "density": "3.64 g/cm3", "thermal_expansion": [{"temperature_range": "-30 70 °C", "coefficient": "6.4e-06 K-1"}, {"temperature_range": "20 300 °C", "coefficient": "7.8e-06 K-1"}], "dPgF": -0.0055, "climatic_resistance": 3.0, "acid_resistance": 53.2, "phosphate_resistance": 4.2}
Dispersion formula 3, range 0.3 0.7 um, coefficients 2.6546711 -0.012819365 2 0.015197193 -2 0.00050420821 -4 -3.4995634e-05 -6 2.0492682e-06 -8
wavelength (um)	k
0.300	6.0297E-06
0.310	4.0969E-06
0.320	2.7472E-06
0.330	1.7682E-06
0.340	1.0835E-06
0.350	6.5654E-07
0.360	3.6622E-07
0.370	2.1051E-07
0.380	1.2660E-07
0.390	8.4947E-08
0.400	5.7818E-08
0.420	3.3591E-08
0.440	2.8124E-08
0.460	2.2030E-08
0.480	1.5310E-08
0.500	1.1955E-08
0.550	8.7623E-09
0.600	9.5589E-09
0.650	5.1751E-09
0.700	5.5732E-09
