Material: glass / ohara / S-BSM21
Optical constants. OHARA Zemax catalog 2017-11-30 (obtained from http://www.ohara-inc.co.jp)See also OHARA glass data sheets
Specs: {"n_absolute": false, "wavelength_vacuum": false, "temperature": "25.0 °C", "nd": 1.617195, "Vd": 54.062144, "glass_code": 617540, "glass_status": "preferred", "density": "3.49 g/cm3", "thermal_expansion": [{"temperature_range": "-30 70 °C", "coefficient": "6.5e-06 K-1"}, {"temperature_range": "20 300 °C", "coefficient": "7.6e-06 K-1"}], "dPgF": -0.0013, "climatic_resistance": 2.0, "acid_resistance": 1.0, "phosphate_resistance": 1.0}
Dispersion formula 2, range 0.3 2.4 um, coefficients 0 1.47867898 0.00869705653 0.0899501399 0.0399353993 1.03056525 108.550949
wavelength (um)	k
0.340	4.7943E-06
0.350	1.7683E-06
0.360	7.1179E-07
0.370	3.2005E-07
0.380	1.8711E-07
0.390	1.0736E-07
0.400	6.7557E-08
0.420	3.6968E-08
0.440	2.8124E-08
0.460	2.5714E-08
0.480	1.9146E-08
0.500	1.5947E-08
0.550	8.7623E-09
0.600	1.4345E-08
0.650	1.5541E-08
0.700	1.6736E-08
0.800	1.2745E-08
0.900	1.4338E-08
