Material: glass / ohara / S-BSM22
Optical constants. OHARA Zemax catalog 2017-11-30 (obtained from http://www.ohara-inc.co.jp)See also OHARA glass data sheets
Comments: Recommended
Specs: {"n_absolute": false, "wavelength_vacuum": false, "temperature": "25.0 °C", "thermal_dispersion": [{"type": "Schott formula", "coefficients": "2.82e-06 1.07e-08 -3.24e-11 4.7e-07 7.23e-10 0.235"}], "nd": 1.622296, "Vd": 53.169067, "glass_code": 622532, "density": "3.24 g/cm3", "thermal_expansion": [{"temperature_range": "-30 70 °C", "coefficient": "6.6e-06 K-1"}, {"temperature_range": "20 300 °C", "coefficient": "7.6e-06 K-1"}], "dPgF": -0.0012, "climatic_resistance": 2.0, "acid_resistance": 3.2, "phosphate_resistance": 1.0}
Dispersion formula 2, range 0.34 2.4 um, coefficients 0 1.44305741 0.0081920891 0.140786358 0.0356911455 1.26093951 131.959337
wavelength (um)	k
0.340	6.8337E-06
0.350	2.7692E-06
0.360	1.2341E-06
0.370	6.2044E-07
0.380	3.1525E-07
0.390	1.8544E-07
0.400	1.1671E-07
0.420	6.4114E-08
0.440	5.2919E-08
0.460	4.4192E-08
0.480	3.4533E-08
0.500	2.3945E-08
0.550	1.3150E-08
0.600	2.3933E-08
0.650	3.1129E-08
0.700	2.2326E-08
0.800	1.2745E-08
0.900	1.4338E-08
1.000	2.3909E-08
1.200	1.9118E-08
1.400	7.8260E-08
1.600	6.3822E-08
1.800	1.4396E-07
2.000	3.2154E-07
2.200	1.1205E-06
2.400	2.6597E-06
