Material: glass / ohara / S-FPL52
Optical constants. OHARA Zemax catalog 2017-11-30 (obtained from http://www.ohara-inc.co.jp)See also OHARA glass data sheets
Comments: The unique relative partial dispersion.
Specs: {"n_absolute": false, "wavelength_vacuum": false, "temperature": "25.0 °C", "nd": 1.455999, "Vd": 90.288026, "glass_code": 456903, "glass_status": "preferred", "density": "3.53 g/cm3", "thermal_expansion": [{"temperature_range": "-30 70 °C", "coefficient": "1.33e-05 K-1"}, {"temperature_range": "20 300 °C", "coefficient": "1.58e-05 K-1"}], "dPgF": 0.0386, "acid_resistance": 52.0, "phosphate_resistance": 4.0}
Dispersion formula 2, range 0.29 2.4 um, coefficients 0 1.06785857 0.00699227302 0.0335857718 -0.0207608925 1.10219763 226.496541
wavelength (um)	k
0.290	1.0628E-05
0.300	6.3485E-06
0.310	3.6255E-06
0.320	1.8690E-06
0.330	9.7443E-07
0.340	4.0807E-07
0.350	2.1112E-07
0.360	9.9097E-08
0.370	4.4500E-08
0.380	2.1242E-08
0.390	1.5557E-08
0.400	1.5955E-08
0.420	2.0114E-08
0.440	2.1072E-08
0.460	1.8349E-08
0.480	1.1476E-08
0.500	7.9657E-09
0.550	4.3790E-09
0.600	9.5589E-09
0.650	1.5541E-08
0.700	1.1152E-08
0.800	1.2745E-08
0.900	1.4338E-08
1.000	1.5931E-08
1.200	1.9118E-08
1.400	2.2304E-08
1.600	2.5490E-08
1.800	2.8677E-08
2.000	3.1863E-08
2.200	3.5049E-08
2.400	3.8235E-08
