Material: glass / ohara / S-FPL51
Optical constants. OHARA Zemax catalog 2017-11-30 (obtained from http://www.ohara-inc.co.jp)See also OHARA glass data sheets
Comments: Recommended - The unique relative partial dispersion.
Specs: {"n_absolute": false, "wavelength_vacuum": false, "temperature": "25.0 °C", "thermal_dispersion": [{"type": "Schott formula", "coefficients": "-1.91e-05 -4.44e-09 -4.62e-11 3.74e-07 4.39e-10 0.163"}], "nd": 1.496999, "Vd": 81.545888, "glass_code": 497816, "density": "3.62 g/cm3", "thermal_expansion": [{"temperature_range": "-30 70 °C", "coefficient": "1.31e-05 K-1"}, {"temperature_range": "20 300 °C", "coefficient": "1.55e-05 K-1"}], "dPgF": 0.028, "climatic_resistance": 1.0, "acid_resistance": 52.1, "phosphate_resistance": 4.0}
Dispersion formula 2, range 0.28 2.4 um, coefficients 0 1.17010505 0.00616203924 0.0475710783 0.0263372876 0.763832445 141.882642
wavelength (um)	k
0.280	1.0261E-05
0.290	6.9134E-06
0.300	4.2302E-06
0.310	2.4527E-06
0.320	1.3008E-06
0.330	6.8636E-07
0.340	3.4587E-07
0.350	1.5167E-07
0.360	7.2530E-08
0.370	3.5546E-08
0.380	1.8198E-08
0.390	1.2439E-08
0.400	1.5955E-08
0.420	2.0114E-08
0.440	2.1072E-08
0.460	1.4672E-08
0.480	1.1476E-08
0.500	7.9657E-09
0.550	4.3790E-09
0.600	9.5589E-09
0.650	1.0355E-08
0.700	1.1152E-08
0.800	6.3694E-09
0.900	7.1656E-09
1.000	7.9617E-09
1.200	9.5541E-09
1.400	1.1146E-08
1.600	1.2739E-08
1.800	1.4331E-08
2.000	1.5923E-08
2.200	5.2600E-08
2.400	7.6548E-08
