Material: glass / ohara / S-FPM2
Optical constants. OHARA Zemax catalog 2017-11-30 (obtained from http://www.ohara-inc.co.jp)See also OHARA glass data sheets
Comments: Recommended - The unique relative partial dispersion
Specs: {"n_absolute": false, "wavelength_vacuum": false, "temperature": "25.0 °C", "thermal_dispersion": [{"type": "Schott formula", "coefficients": "-1.65e-05 2.94e-09 -1.11e-12 4.25e-07 3.23e-10 0.176"}], "nd": 1.59522, "Vd": 67.735723, "density": "4.17 g/cm3", "thermal_expansion": [{"temperature_range": "-30 70 °C", "coefficient": "1.17e-05 K-1"}], "dPgF": 0.0123, "climatic_resistance": 2.0, "acid_resistance": 51.3, "phosphate_resistance": 4.1}
Dispersion formula 2, range 0.3 2.4 um, coefficients 0 0.761242785 0.00321174095 0.747033375 0.0140234423 0.938928947 139.52353
wavelength (um)	k
0.310	4.2302E-06
0.320	2.6734E-06
0.330	1.6181E-06
0.340	8.8881E-07
0.350	4.8561E-07
0.360	2.4823E-07
0.370	1.2634E-07
0.380	6.1092E-08
0.390	3.7468E-08
0.400	2.8778E-08
0.420	3.6968E-08
0.440	3.8729E-08
0.460	2.9402E-08
0.480	2.2987E-08
0.500	1.5947E-08
0.550	8.7623E-09
0.600	1.4345E-08
0.650	2.0732E-08
0.700	2.2326E-08
0.800	3.1911E-08
0.900	3.5900E-08
1.000	3.1895E-08
1.200	2.8691E-08
1.400	3.3473E-08
1.600	3.8255E-08
1.800	7.1799E-08
2.000	1.2784E-07
2.200	1.9364E-07
2.400	3.2747E-07
