Material: glass / ohara / S-FPL53
Optical constants. OHARA Zemax catalog 2017-11-30 (obtained from http://www.ohara-inc.co.jp)See also OHARA glass data sheets
Comments: Recommended -The unique relative partial dispersion.
Specs: {"n_absolute": false, "wavelength_vacuum": false, "temperature": "25.0 °C", "thermal_dispersion": [{"type": "Schott formula", "coefficients": "-2.22e-05 -1.06e-08 -4.91e-11 2.77e-07 3.92e-10 0.206"}], "nd": 1.43875, "Vd": 94.946025, "glass_code": 439950, "density": "3.62 g/cm3", "thermal_expansion": [{"temperature_range": "-30 70 °C", "coefficient": "1.45e-05 K-1"}, {"temperature_range": "20 300 °C", "coefficient": "1.69e-05 K-1"}], "dPgF": 0.0461, "climatic_resistance": 3.0, "acid_resistance": 52.3, "phosphate_resistance": 4.3}
Dispersion formula 2, range 0.28 2.4 um, coefficients 0 0.983532327 0.00492234955 0.069568814 0.0193581091 1.11409238 264.275294
wavelength (um)	k
0.280	7.1722E-06
0.290	4.8930E-06
0.300	3.0390E-06
0.310	1.6611E-06
0.320	8.7214E-07
0.330	4.2678E-07
0.340	2.0217E-07
0.350	9.3463E-08
0.360	4.3297E-08
0.370	2.3650E-08
0.380	1.2120E-08
0.390	9.3246E-09
0.400	1.2758E-08
0.420	1.6753E-08
0.440	1.7551E-08
0.460	1.4672E-08
0.480	1.1476E-08
0.500	7.9657E-09
0.550	4.3790E-09
0.600	9.5589E-09
0.650	1.5541E-08
0.700	1.1152E-08
0.800	1.2745E-08
0.900	2.1518E-08
1.000	2.3909E-08
1.200	1.9118E-08
1.400	2.2304E-08
1.600	2.5490E-08
1.800	2.8677E-08
2.000	3.1863E-08
2.200	5.2600E-08
2.400	3.8235E-08
