Material: glass / ohara / S-LAM60
Optical constants. OHARA Zemax catalog 2017-11-30 (obtained from http://www.ohara-inc.co.jp)See also OHARA glass data sheets
Comments: Recommended
Specs: {"n_absolute": false, "wavelength_vacuum": false, "temperature": "25.0 °C", "thermal_dispersion": [{"type": "Schott formula", "coefficients": "6.57e-06 1.45e-08 -3.29e-11 4.46e-07 4.6e-10 0.256"}], "nd": 1.743198, "Vd": 49.339444, "glass_code": 743493, "density": "4.06 g/cm3", "thermal_expansion": [{"temperature_range": "-30 70 °C", "coefficient": "5.4e-06 K-1"}, {"temperature_range": "20 300 °C", "coefficient": "6.6e-06 K-1"}], "dPgF": -0.0085, "climatic_resistance": 2.0, "acid_resistance": 52.0, "phosphate_resistance": 2.0}
Dispersion formula 2, range 0.33 2.4 um, coefficients 0 1.60673056 0.0077504614 0.36641564 0.0289967611 1.31761804 93.0720709
wavelength (um)	k
0.330	9.2084E-06
0.340	3.3492E-06
0.350	1.4228E-06
0.360	6.7529E-07
0.370	3.4312E-07
0.380	1.9677E-07
0.390	1.2346E-07
0.400	8.3855E-08
0.420	5.0514E-08
0.440	3.5190E-08
0.460	2.5714E-08
0.480	1.9146E-08
0.500	1.1955E-08
0.550	8.7623E-09
0.600	1.4345E-08
0.650	1.0355E-08
0.700	1.1152E-08
0.800	1.2745E-08
0.900	1.4338E-08
1.000	2.3909E-08
1.200	2.8691E-08
1.400	1.0072E-07
1.600	1.1511E-07
1.800	2.8938E-07
2.000	7.6618E-07
2.200	2.4381E-06
2.400	9.1298E-06
