Material: glass / ohara / S-LAL18
Optical constants. OHARA Zemax catalog 2017-11-30 (obtained from http://www.ohara-inc.co.jp)See also OHARA glass data sheets
Comments: Recommended
Specs: {"n_absolute": false, "wavelength_vacuum": false, "temperature": "25.0 °C", "thermal_dispersion": [{"type": "Schott formula", "coefficients": "2.46e-06 1.15e-08 -3.23e-12 6.57e-07 8.65e-10 0.0"}], "nd": 1.729157, "Vd": 54.680013, "glass_code": 729547, "density": "4.18 g/cm3", "thermal_expansion": [{"temperature_range": "-30 70 °C", "coefficient": "5.9e-06 K-1"}, {"temperature_range": "20 300 °C", "coefficient": "6.9e-06 K-1"}], "dPgF": -0.0086, "climatic_resistance": 1.0, "acid_resistance": 51.2, "phosphate_resistance": 2.0}
Dispersion formula 2, range 0.28 2.4 um, coefficients 0 1.50276318 0.0145462356 0.430224497 -0.00332784153 1.3472606 93.3508342
wavelength (um)	k
0.280	7.1722E-06
0.290	3.6016E-06
0.300	2.8743E-06
0.310	2.8109E-06
0.320	1.5224E-06
0.330	1.0128E-06
0.340	6.7225E-07
0.350	4.2007E-07
0.360	2.6389E-07
0.370	1.6345E-07
0.380	1.0147E-07
0.390	6.9040E-08
0.400	5.1341E-08
0.420	3.0216E-08
0.440	2.1072E-08
0.460	1.4672E-08
0.480	1.1476E-08
0.500	7.9657E-09
0.550	4.3790E-09
0.600	9.5589E-09
0.650	5.1751E-09
0.700	5.5732E-09
0.800	1.2745E-08
0.900	1.4338E-08
1.000	2.3909E-08
1.200	3.8274E-08
1.400	1.0072E-07
1.600	1.1511E-07
1.800	2.6018E-07
2.000	7.1616E-07
2.200	2.4381E-06
2.400	9.7561E-06
