Material: glass / ohara / S-LAH66
Optical constants. OHARA Zemax catalog 2017-11-30 (obtained from http://www.ohara-inc.co.jp)See also OHARA glass data sheets
Comments: Recommended
Specs: {"n_absolute": false, "wavelength_vacuum": false, "temperature": "25.0 °C", "thermal_dispersion": [{"type": "Schott formula", "coefficients": "3.03e-06 1.36e-08 -3.27e-11 5e-07 6.02e-10 0.218"}], "nd": 1.772499, "Vd": 49.598371, "glass_code": 773496, "density": "4.23 g/cm3", "thermal_expansion": [{"temperature_range": "-30 70 °C", "coefficient": "6.2e-06 K-1"}, {"temperature_range": "20 300 °C", "coefficient": "7.4e-06 K-1"}], "dPgF": -0.0092, "climatic_resistance": 1.0, "acid_resistance": 51.2, "phosphate_resistance": 1.0}
Dispersion formula 2, range 0.31 2.4 um, coefficients 0 1.39280586 0.00608475118 0.679577094 0.0233925351 1.38702069 95.8354094
wavelength (um)	k
0.310	5.6803E-06
0.320	2.8232E-06
0.330	1.5700E-06
0.340	9.2665E-07
0.350	5.8690E-07
0.360	3.6622E-07
0.370	2.1367E-07
0.380	1.3607E-07
0.390	9.1333E-08
0.400	6.7557E-08
0.420	4.3734E-08
0.440	3.1655E-08
0.460	2.2030E-08
0.480	1.5310E-08
0.500	1.1955E-08
0.550	4.3790E-09
0.600	9.5589E-09
0.650	1.0355E-08
0.700	5.5732E-09
0.800	1.2745E-08
0.900	1.4338E-08
1.000	1.5931E-08
1.200	2.8691E-08
1.400	7.8260E-08
1.600	8.9440E-08
1.800	2.4560E-07
2.000	6.8289E-07
2.200	2.2380E-06
2.400	8.5235E-06
