Material: glass / ohara / S-LAL8
Optical constants. OHARA Zemax catalog 2017-11-30 (obtained from http://www.ohara-inc.co.jp)See also OHARA glass data sheets
Comments: Recommended
Specs: {"n_absolute": false, "wavelength_vacuum": false, "temperature": "25.0 °C", "thermal_dispersion": [{"type": "Schott formula", "coefficients": "3.24e-06 1.31e-08 -3.71e-11 3.81e-07 4.99e-10 0.252"}], "nd": 1.712995, "Vd": 53.867058, "glass_code": 713539, "density": "3.79 g/cm3", "thermal_expansion": [{"temperature_range": "-30 70 °C", "coefficient": "6.1e-06 K-1"}, {"temperature_range": "20 300 °C", "coefficient": "7.4e-06 K-1"}], "dPgF": -0.0084, "climatic_resistance": 3.0, "acid_resistance": 52.0, "phosphate_resistance": 3.0}
Dispersion formula 2, range 0.29 2.4 um, coefficients 0 1.30663291 0.00611862448 0.571377253 0.021272147 1.24303605 90.6285686
wavelength (um)	k
0.290	8.0922E-06
0.300	6.3485E-06
0.310	4.6800E-06
0.320	3.2416E-06
0.330	2.1559E-06
0.340	1.3821E-06
0.350	8.3864E-07
0.360	4.9949E-07
0.370	2.9391E-07
0.380	1.7427E-07
0.390	1.1057E-07
0.400	7.4066E-08
0.420	4.0350E-08
0.440	3.1655E-08
0.460	2.2030E-08
0.480	1.5310E-08
0.500	1.1955E-08
0.550	8.7623E-09
0.600	1.9137E-08
0.650	1.5541E-08
0.700	1.6736E-08
0.800	1.2745E-08
0.900	2.1518E-08
1.000	2.3909E-08
1.200	2.8691E-08
1.400	1.0072E-07
1.600	1.1511E-07
1.800	2.7477E-07
2.000	7.3281E-07
2.200	2.4381E-06
2.400	9.1298E-06
