Material: glass / ohara / S-LAH63Q
Optical constants. OHARA Zemax catalog 2017-11-30 (obtained from http://www.ohara-inc.co.jp)See also OHARA glass data sheets
Specs: {"n_absolute": false, "wavelength_vacuum": false, "temperature": "25.0 °C", "thermal_dispersion": [{"type": "Schott formula", "coefficients": "-2.81e-06 9.15e-09 -8.1e-12 7.5e-07 7.86e-10 0.243"}], "nd": 1.8044, "Vd": 39.580489, "density": "4.45 g/cm3", "thermal_expansion": [{"temperature_range": "-30 70 °C", "coefficient": "7.9e-06 K-1"}], "dPgF": -0.0012, "climatic_resistance": 3.0, "acid_resistance": 51.2, "phosphate_resistance": 1.0}
Dispersion formula 2, range 0.365015 2.32542 um, coefficients 0 1.96723017 0.0110456086 0.194953915 0.0497137061 1.25386282 104.84352
wavelength (um)	k
0.340	1.2460E-05
0.350	5.4760E-06
0.360	2.3519E-06
0.370	1.0925E-06
0.380	6.0010E-07
0.390	3.6167E-07
0.400	2.4128E-07
0.420	1.3992E-07
0.440	9.5838E-08
0.460	7.0220E-08
0.480	4.9982E-08
0.500	3.5972E-08
0.550	1.7542E-08
0.600	1.9137E-08
0.650	2.0732E-08
0.700	1.6736E-08
0.800	1.2745E-08
0.900	1.4338E-08
1.000	7.9617E-09
1.200	9.5541E-09
1.400	2.2304E-08
1.600	6.3822E-08
1.800	1.8743E-07
2.000	5.1762E-07
2.200	1.4028E-06
2.400	4.9917E-06
