Material: glass / ohara / S-LAL11
Optical constants. OHARA Zemax catalog 2017-11-30 (obtained from http://www.ohara-inc.co.jp)See also OHARA glass data sheets
Specs: {"n_absolute": false, "wavelength_vacuum": false, "temperature": "25.0 °C", "thermal_dispersion": [{"type": "Schott formula", "coefficients": "-6.19e-07 1.33e-08 -4.63e-11 6.45e-07 4.57e-10 0.178"}], "nd": 1.658296, "Vd": 57.332589, "glass_code": 658573, "glass_status": "special", "density": "3.9 g/cm3", "thermal_expansion": [{"temperature_range": "-30 70 °C", "coefficient": "7.3e-06 K-1"}, {"temperature_range": "20 300 °C", "coefficient": "8.4e-06 K-1"}], "dPgF": -0.0037, "climatic_resistance": 4.0, "acid_resistance": 53.0, "phosphate_resistance": 4.2}
Dispersion formula 3, range 0.28 2.4 um, coefficients 2.7037498 -0.011741892 2 0.0158996 -2 0.00061265364 -4 -4.6676845e-05 -6 2.6544952e-06 -8
wavelength (um)	k
0.280	1.0261E-05
0.290	6.4926E-06
0.300	4.2302E-06
0.310	2.7350E-06
0.320	1.7651E-06
0.330	1.1313E-06
0.340	7.0716E-07
0.350	4.2007E-07
0.360	2.3887E-07
0.370	1.4793E-07
0.380	9.5226E-08
0.390	6.9040E-08
0.400	5.1341E-08
0.420	3.6968E-08
0.440	3.5190E-08
0.460	2.9402E-08
0.480	1.9146E-08
0.500	1.5947E-08
0.550	8.7623E-09
0.600	1.4345E-08
0.650	1.5541E-08
0.700	1.1152E-08
