Material: glass / ohara / S-LAM54
Optical constants. OHARA Zemax catalog 2017-11-30 (obtained from http://www.ohara-inc.co.jp)See also OHARA glass data sheets
Comments: Recommended
Specs: {"n_absolute": false, "wavelength_vacuum": false, "temperature": "25.0 °C", "thermal_dispersion": [{"type": "Schott formula", "coefficients": "4.27e-06 1.66e-08 -3.72e-11 4.44e-07 5.21e-10 0.257"}], "nd": 1.756998, "Vd": 47.82317, "glass_code": 757478, "density": "4.08 g/cm3", "thermal_expansion": [{"temperature_range": "-30 70 °C", "coefficient": "5.7e-06 K-1"}, {"temperature_range": "20 300 °C", "coefficient": "6.9e-06 K-1"}], "dPgF": -0.0076, "climatic_resistance": 1.0, "acid_resistance": 51.0, "phosphate_resistance": 2.0}
Dispersion formula 2, range 0.34 2.4 um, coefficients 0 1.84213306 0.0094399322 0.175468631 0.0395281122 1.25750878 86.5463013
wavelength (um)	k
0.340	8.1054E-06
0.350	3.0879E-06
0.360	1.2341E-06
0.370	5.8431E-07
0.380	2.8852E-07
0.390	1.7557E-07
0.400	1.2001E-07
0.420	7.0935E-08
0.440	5.2919E-08
0.460	3.6790E-08
0.480	2.6832E-08
0.500	1.9944E-08
0.550	1.3150E-08
0.600	1.4345E-08
0.650	1.0355E-08
0.700	1.1152E-08
0.800	6.3694E-09
0.900	1.4338E-08
1.000	2.3909E-08
1.200	2.8691E-08
1.400	1.0072E-07
1.600	1.1511E-07
1.800	2.7477E-07
2.000	7.4949E-07
2.200	2.4381E-06
2.400	9.1298E-06
