Material: glass / ohara / S-LAL60
Optical constants. OHARA Zemax catalog 2017-11-30 (obtained from http://www.ohara-inc.co.jp)See also OHARA glass data sheets
Specs: {"n_absolute": false, "wavelength_vacuum": false, "temperature": "25.0 °C", "thermal_dispersion": [{"type": "Schott formula", "coefficients": "3.3e-06 1.19e-08 -1.31e-12 4.87e-07 4.79e-10 0.196"}], "nd": 1.725999, "Vd": 53.565698, "glass_code": 726536, "glass_status": "preferred", "density": "3.91 g/cm3", "thermal_expansion": [{"temperature_range": "-30 70 °C", "coefficient": "5.6e-06 K-1"}, {"temperature_range": "20 300 °C", "coefficient": "7e-06 K-1"}], "dPgF": -0.0091, "climatic_resistance": 2.0, "acid_resistance": 52.0, "phosphate_resistance": 3.0}
Dispersion formula 3, range 0.3 2.4 um, coefficients 2.9223334 -0.015268924 2 0.020070735 -2 0.00049690538 -4 -1.5326299e-05 -6 1.0772354e-06 -8
wavelength (um)	k
0.310	7.9406E-06
0.320	5.3992E-06
0.330	3.6405E-06
0.340	2.4123E-06
0.350	1.4696E-06
0.360	9.0158E-07
0.370	5.4862E-07
0.380	3.5239E-07
0.390	2.1856E-07
0.400	1.4656E-07
0.420	8.1192E-08
0.440	6.0036E-08
0.460	4.7899E-08
0.480	3.4533E-08
0.500	2.7950E-08
0.550	2.1939E-08
0.600	2.3933E-08
0.650	2.0732E-08
0.700	2.2326E-08
