Material: glass / ohara / S-LAH51
Optical constants. OHARA Zemax catalog 2017-11-30 (obtained from http://www.ohara-inc.co.jp)See also OHARA glass data sheets
Comments: Recommended
Specs: {"n_absolute": false, "wavelength_vacuum": false, "temperature": "25.0 °C", "thermal_dispersion": [{"type": "Schott formula", "coefficients": "5.3e-06 1.13e-08 2.62e-12 8.44e-07 1.11e-09 0.169"}], "nd": 1.785896, "Vd": 44.202637, "glass_code": 786442, "density": "4.4 g/cm3", "thermal_expansion": [{"temperature_range": "-30 70 °C", "coefficient": "5.9e-06 K-1"}, {"temperature_range": "20 300 °C", "coefficient": "7.2e-06 K-1"}], "dPgF": -0.0069, "climatic_resistance": 1.0, "acid_resistance": 4.0, "phosphate_resistance": 2.0}
Dispersion formula 2, range 0.33 2.4 um, coefficients 0 1.82586991 0.00935297152 0.283023349 0.0373803057 1.35964319 100.655798
wavelength (um)	k
0.330	1.2093E-05
0.340	4.7943E-06
0.350	1.8754E-06
0.360	9.0158E-07
0.370	5.1336E-07
0.380	2.8519E-07
0.390	1.8544E-07
0.400	1.2663E-07
0.420	7.7770E-08
0.440	5.6476E-08
0.460	4.0489E-08
0.480	2.6832E-08
0.500	1.9944E-08
0.550	8.7623E-09
0.600	1.4345E-08
0.650	1.5541E-08
0.700	1.1152E-08
0.800	1.2745E-08
0.900	2.1518E-08
1.000	3.1895E-08
1.200	3.8274E-08
1.400	1.0072E-07
1.600	1.4083E-07
1.800	2.7477E-07
2.000	6.9952E-07
2.200	2.0402E-06
2.400	7.3656E-06
