Material: glass / ohara / S-LAH65
Optical constants. OHARA Zemax catalog 2017-11-30 (obtained from http://www.ohara-inc.co.jp)See also OHARA glass data sheets
Specs: {"n_absolute": false, "wavelength_vacuum": false, "temperature": "25.0 °C", "thermal_dispersion": [{"type": "Schott formula", "coefficients": "3.21e-06 1.28e-08 -3.45e-11 4.22e-07 5.14e-10 0.275"}], "nd": 1.804, "Vd": 46.570373, "glass_code": 804466, "glass_status": "preferred", "density": "4.76 g/cm3", "thermal_expansion": [{"temperature_range": "-30 70 °C", "coefficient": "6e-06 K-1"}, {"temperature_range": "20 300 °C", "coefficient": "7.3e-06 K-1"}], "dPgF": -0.009, "acid_resistance": 4.1, "phosphate_resistance": 1.0}
Dispersion formula 2, range 0.32 2.4 um, coefficients 0 1.68191258 0.0077668425 0.493779818 0.0288916181 1.45682822 99.2574356
wavelength (um)	k
0.320	6.4317E-06
0.330	3.3429E-06
0.340	1.8754E-06
0.350	1.1573E-06
0.360	7.1179E-07
0.370	4.4408E-07
0.380	2.6532E-07
0.390	1.6901E-07
0.400	1.1671E-07
0.420	6.7523E-08
0.440	4.2271E-08
0.460	2.9402E-08
0.480	1.9146E-08
0.500	1.5947E-08
0.550	8.7623E-09
0.600	9.5589E-09
0.650	1.0355E-08
0.700	1.1152E-08
0.800	1.2745E-08
0.900	2.1518E-08
1.000	2.3909E-08
1.200	2.8691E-08
1.400	6.7046E-08
1.600	8.9440E-08
1.800	2.4560E-07
2.000	6.6629E-07
2.200	2.0402E-06
2.400	7.9358E-06
