Material: glass / ohara / S-LAH88
Optical constants. OHARA Zemax catalog 2017-11-30 (obtained from http://www.ohara-inc.co.jp)See also OHARA glass data sheets
Comments: Recommended
Specs: {"n_absolute": false, "wavelength_vacuum": false, "temperature": "25.0 °C", "thermal_dispersion": [{"type": "Schott formula", "coefficients": "4.66e-06 1.07e-08 -2.33e-11 9.1e-07 1.07e-09 0.262"}], "nd": 1.916499, "Vd": 31.604148, "density": "4.74 g/cm3", "thermal_expansion": [{"temperature_range": "-30 70 °C", "coefficient": "5.7e-06 K-1"}], "dPgF": 0.0008, "climatic_resistance": 1.0, "acid_resistance": 3.2, "phosphate_resistance": 1.1}
Dispersion formula 2, range 0.37 2.4 um, coefficients 0 2.1284434 0.0117309815 0.405082139 0.0508706599 1.67918461 107.091456
wavelength (um)	k
0.350	1.2826E-05
0.360	5.2500E-06
0.370	2.3511E-06
0.380	1.1662E-06
0.390	6.5398E-07
0.400	4.4328E-07
0.420	2.2106E-07
0.440	1.3929E-07
0.460	1.0019E-07
0.480	7.3273E-08
0.500	5.2065E-08
0.550	2.6340E-08
0.600	1.9137E-08
0.650	1.5541E-08
0.700	1.1152E-08
0.800	6.3694E-09
0.900	7.1656E-09
1.000	7.9617E-09
1.200	9.5541E-09
1.400	5.5844E-08
1.600	7.6624E-08
1.800	2.1649E-07
2.000	6.0004E-07
2.200	2.0402E-06
2.400	6.5411E-06
