Material: glass / ohara / S-LAH52Q
Optical constants. OHARA Zemax catalog 2017-11-30 (obtained from http://www.ohara-inc.co.jp)See also OHARA glass data sheets
Comments: Recommended
Specs: {"n_absolute": false, "wavelength_vacuum": false, "temperature": "25.0 °C", "thermal_dispersion": [{"type": "Schott formula", "coefficients": "1.08e-05 1.21e-08 -1.6e-11 8.62e-07 8.63e-10 0.222"}], "nd": 1.79952, "Vd": 42.239506, "density": "4.47 g/cm3", "thermal_expansion": [{"temperature_range": "-30 70 °C", "coefficient": "6e-06 K-1"}], "dPgF": -0.0056, "climatic_resistance": 2.0, "acid_resistance": 52.2, "phosphate_resistance": 2.0}
Dispersion formula 2, range 0.365015 2.32542 um, coefficients 0 1.91082318 0.0103565352 0.239854589 0.0413805081 1.16159733 96.60373
wavelength (um)	k
0.340	5.5201E-06
0.350	2.1628E-06
0.360	9.0158E-07
0.370	4.4408E-07
0.380	2.3248E-07
0.390	1.4615E-07
0.400	1.0024E-07
0.420	6.0709E-08
0.440	4.2271E-08
0.460	2.9402E-08
0.480	1.9146E-08
0.500	1.1955E-08
0.550	4.3790E-09
0.600	9.5589E-09
0.650	5.1751E-09
0.700	5.5732E-09
0.800	6.3694E-09
0.900	7.1656E-09
1.000	7.9617E-09
1.200	9.5541E-09
1.400	3.3473E-08
1.600	5.1032E-08
1.800	1.5844E-07
2.000	5.3407E-07
2.200	1.3838E-06
2.400	5.4943E-06
