Material: glass / ohara / S-LAH60
Optical constants. OHARA Zemax catalog 2017-11-30 (obtained from http://www.ohara-inc.co.jp)See also OHARA glass data sheets
Comments: Recommended
Specs: {"n_absolute": false, "wavelength_vacuum": false, "temperature": "25.0 °C", "thermal_dispersion": [{"type": "Schott formula", "coefficients": "6.88e-06 1.25e-08 -3.24e-11 6.63e-07 7.1e-10 0.271"}], "nd": 1.834, "Vd": 37.160487, "glass_code": 834372, "density": "4.43 g/cm3", "thermal_expansion": [{"temperature_range": "-30 70 °C", "coefficient": "5.6e-06 K-1"}, {"temperature_range": "20 300 °C", "coefficient": "7.1e-06 K-1"}], "dPgF": -0.0037, "climatic_resistance": 1.0, "acid_resistance": 4.2, "phosphate_resistance": 1.0}
Dispersion formula 2, range 0.34 2.4 um, coefficients 0 1.95243469 0.0106442437 0.30710021 0.0456735302 1.56578094 110.28141
wavelength (um)	k
0.340	9.4875E-06
0.350	3.6468E-06
0.360	1.7652E-06
0.370	9.6724E-07
0.380	5.6345E-07
0.390	3.9673E-07
0.400	2.5160E-07
0.420	1.4690E-07
0.440	9.9438E-08
0.460	7.3953E-08
0.480	5.3854E-08
0.500	3.9989E-08
0.550	1.7542E-08
0.600	1.4345E-08
0.650	1.5541E-08
0.700	1.1152E-08
0.800	6.3694E-09
0.900	1.4338E-08
1.000	2.3909E-08
1.200	3.8274E-08
1.400	7.8260E-08
1.600	1.0227E-07
1.800	2.3104E-07
2.000	5.8353E-07
2.200	1.7282E-06
2.400	6.2740E-06
