Material: glass / ohara / S-LAL10
Optical constants. OHARA Zemax catalog 2017-11-30 (obtained from http://www.ohara-inc.co.jp)See also OHARA glass data sheets
Comments: Recommended
Specs: {"n_absolute": false, "wavelength_vacuum": false, "temperature": "25.0 °C", "thermal_dispersion": [{"type": "Schott formula", "coefficients": "4.83e-06 1.07e-08 -3.51e-11 5.85e-07 6.98e-10 0.196"}], "nd": 1.719995, "Vd": 50.230564, "glass_code": 720502, "density": "3.86 g/cm3", "thermal_expansion": [{"temperature_range": "-30 70 °C", "coefficient": "6.1e-06 K-1"}, {"temperature_range": "20 300 °C", "coefficient": "7.6e-06 K-1"}], "dPgF": -0.0081, "climatic_resistance": 2.0, "acid_resistance": 52.2, "phosphate_resistance": 3.0}
Dispersion formula 2, range 0.31 2.4 um, coefficients 0 1.52812575 0.00776817644 0.367965267 0.0272026548 1.11751784 88.86974
wavelength (um)	k
0.310	6.5601E-06
0.320	3.8557E-06
0.330	2.4062E-06
0.340	1.4738E-06
0.350	9.1495E-07
0.360	5.3379E-07
0.370	3.4312E-07
0.380	1.9677E-07
0.390	1.2993E-07
0.400	9.0398E-08
0.420	5.7307E-08
0.440	4.2271E-08
0.460	3.3094E-08
0.480	2.2987E-08
0.500	1.5947E-08
0.550	8.7623E-09
0.600	1.4345E-08
0.650	1.0355E-08
0.700	1.1152E-08
0.800	1.2745E-08
0.900	1.4338E-08
1.000	1.5931E-08
1.200	1.9118E-08
1.400	3.3473E-08
1.600	5.1032E-08
1.800	1.4396E-07
2.000	4.6837E-07
2.200	1.4217E-06
2.400	6.5411E-06
