Material: glass / ohara / S-LAH89
Optical constants. OHARA Zemax catalog 2017-11-30 (obtained from http://www.ohara-inc.co.jp)See also OHARA glass data sheets
Comments: Recommended
Specs: {"n_absolute": false, "wavelength_vacuum": false, "temperature": "25.0 °C", "thermal_dispersion": [{"type": "Schott formula", "coefficients": "2.88e-06 9.71e-09 -1.22e-11 8.18e-07 8e-10 0.213"}], "nd": 1.8515, "Vd": 40.782269, "density": "4.7 g/cm3", "thermal_expansion": [{"temperature_range": "-30 70 °C", "coefficient": "6.8e-06 K-1"}], "dPgF": -0.006, "climatic_resistance": 2.0, "acid_resistance": 4.0, "phosphate_resistance": 1.0}
Dispersion formula 2, range 0.4 2.3 um, coefficients 0 1.95118827 0.00976560799 0.377607223 0.0382232043 1.47757262 112.23672
wavelength (um)	k
0.340	7.1950E-06
0.350	3.2620E-06
0.360	1.6104E-06
0.370	8.8656E-07
0.380	5.2723E-07
0.390	3.6167E-07
0.400	2.3100E-07
0.420	1.2948E-07
0.440	8.8648E-08
0.460	6.2765E-08
0.480	4.2250E-08
0.500	2.7950E-08
0.550	8.7623E-09
0.600	4.7770E-09
0.650	1.0355E-08
0.700	5.5732E-09
0.800	6.3694E-09
0.900	7.1656E-09
1.000	7.9617E-09
1.200	9.5541E-09
1.400	2.2304E-08
1.600	3.8255E-08
1.800	1.1505E-07
2.000	4.0295E-07
2.200	1.1205E-06
2.400	4.7453E-06
