Material: glass / ohara / S-LAH63
Optical constants. OHARA Zemax catalog 2017-11-30 (obtained from http://www.ohara-inc.co.jp)See also OHARA glass data sheets
Comments: Recommended
Specs: {"n_absolute": false, "wavelength_vacuum": false, "temperature": "25.0 °C", "thermal_dispersion": [{"type": "Schott formula", "coefficients": "6.2e-06 1.43e-08 -3.96e-12 8.21e-07 7.44e-10 0.216"}], "nd": 1.804398, "Vd": 39.58615, "glass_code": 804396, "density": "4.34 g/cm3", "thermal_expansion": [{"temperature_range": "-30 70 °C", "coefficient": "5.8e-06 K-1"}, {"temperature_range": "20 300 °C", "coefficient": "7e-06 K-1"}], "dPgF": -0.0045, "climatic_resistance": 1.0, "acid_resistance": 4.2, "phosphate_resistance": 1.0}
Dispersion formula 2, range 0.34 2.4 um, coefficients 0 1.89458276 0.0102277048 0.268702978 0.0442801243 1.45705526 104.874927
wavelength (um)	k
0.340	7.6121E-06
0.350	3.2620E-06
0.360	1.5116E-06
0.370	8.0804E-07
0.380	4.5608E-07
0.390	2.9611E-07
0.400	2.0713E-07
0.420	1.1908E-07
0.440	8.5059E-08
0.460	6.2765E-08
0.480	4.6114E-08
0.500	3.1959E-08
0.550	1.3150E-08
0.600	9.5589E-09
0.650	1.0355E-08
0.700	1.1152E-08
0.800	6.3694E-09
0.900	1.4338E-08
1.000	2.3909E-08
1.200	2.8691E-08
1.400	7.8260E-08
1.600	1.0227E-07
1.800	2.3104E-07
2.000	6.0004E-07
2.200	2.0402E-06
2.400	6.8120E-06
