Material: glass / ohara / S-LAH55
Optical constants. OHARA Zemax catalog 2017-11-30 (obtained from http://www.ohara-inc.co.jp)See also OHARA glass data sheets
Specs: {"n_absolute": false, "wavelength_vacuum": false, "temperature": "25.0 °C", "thermal_dispersion": [{"type": "Schott formula", "coefficients": "2.4e-06 1.26e-08 -2.98e-11 6.81e-07 8.19e-10 0.211"}], "nd": 1.834807, "Vd": 42.713673, "glass_code": 835427, "glass_status": "preferred", "density": "4.73 g/cm3", "thermal_expansion": [{"temperature_range": "-30 70 °C", "coefficient": "6.2e-06 K-1"}, {"temperature_range": "20 300 °C", "coefficient": "7.6e-06 K-1"}], "dPgF": -0.0082, "acid_resistance": 4.0, "phosphate_resistance": 1.0}
Dispersion formula 2, range 0.33 2.4 um, coefficients 0 1.95615766 0.00979338965 0.319216215 0.0376836296 1.39173189 94.8775271
wavelength (um)	k
0.320	1.1727E-05
0.330	4.5032E-06
0.340	2.2213E-06
0.350	1.1998E-06
0.360	7.1179E-07
0.370	4.4408E-07
0.380	2.7524E-07
0.390	1.8873E-07
0.400	1.3658E-07
0.420	8.8048E-08
0.440	6.3599E-08
0.460	4.4192E-08
0.480	3.4533E-08
0.500	2.3945E-08
0.550	8.7623E-09
0.600	9.5589E-09
0.650	1.0355E-08
0.700	1.1152E-08
0.800	1.2745E-08
0.900	1.4338E-08
1.000	7.9617E-09
1.200	9.5541E-09
1.400	4.4653E-08
1.600	7.6624E-08
1.800	2.1649E-07
2.000	6.1658E-07
2.200	2.0402E-06
2.400	7.3656E-06
