Material: glass / ohara / S-LAH54
Optical constants. OHARA Zemax catalog 2017-11-30 (obtained from http://www.ohara-inc.co.jp)See also OHARA glass data sheets
Specs: {"n_absolute": false, "wavelength_vacuum": false, "temperature": "25.0 °C", "thermal_dispersion": [{"type": "Schott formula", "coefficients": "4.815e-06 0.0 0.0 0.0 0.0 0.0"}], "nd": 1.815543, "Vd": 44.361146, "glass_code": 816444, "glass_status": "preferred", "density": "4.54 g/cm3", "thermal_expansion": [{"temperature_range": "-30 70 °C", "coefficient": "5.9e-06 K-1"}, {"temperature_range": "20 300 °C", "coefficient": "7.1e-06 K-1"}], "dPgF": -0.0084, "acid_resistance": 4.2, "phosphate_resistance": 1.0}
Dispersion formula 3, range 0.3 2.4 um, coefficients 3.2126997 -0.01535137 2 0.028440374 -2 0.00079180171 -4 -1.7032771e-05 -6 2.6219094e-06 -8
wavelength (um)	k
0.320	1.1727E-05
0.330	5.3577E-06
0.340	2.7642E-06
0.350	1.6149E-06
0.360	9.4109E-07
0.370	5.8431E-07
0.380	3.8656E-07
0.390	2.3860E-07
0.400	1.6998E-07
0.420	1.0525E-07
0.440	8.1473E-08
0.460	5.9043E-08
0.480	4.2250E-08
0.500	2.7950E-08
0.550	1.7542E-08
0.600	2.3933E-08
0.650	2.5928E-08
0.700	1.6736E-08
0.800	1.9127E-08
0.900	2.1518E-08
