Material: glass / ohara / S-LAL13
Optical constants. OHARA Zemax catalog 2017-11-30 (obtained from http://www.ohara-inc.co.jp)See also OHARA glass data sheets
Comments: Recommended
Specs: {"n_absolute": false, "wavelength_vacuum": false, "temperature": "25.0 °C", "thermal_dispersion": [{"type": "Schott formula", "coefficients": "5.88e-06 1.5e-08 -4e-11 3.13e-07 5.37e-10 0.292"}], "nd": 1.693501, "Vd": 53.205327, "glass_code": 694532, "density": "3.6 g/cm3", "thermal_expansion": [{"temperature_range": "-30 70 °C", "coefficient": "5.7e-06 K-1"}, {"temperature_range": "20 300 °C", "coefficient": "7.2e-06 K-1"}], "dPgF": -0.0081, "climatic_resistance": 1.0, "acid_resistance": 52.0, "phosphate_resistance": 3.0}
Dispersion formula 2, range 0.29 2.4 um, coefficients 0 0.980071267 0.00389123698 0.832904776 0.0189164592 1.28111995 98.9052676
wavelength (um)	k
0.290	1.0628E-05
0.300	8.3713E-06
0.310	6.2307E-06
0.320	4.2290E-06
0.330	2.8330E-06
0.340	1.7693E-06
0.350	1.0742E-06
0.360	6.3926E-07
0.370	3.7639E-07
0.380	2.1295E-07
0.390	1.3316E-07
0.400	9.0398E-08
0.420	4.7122E-08
0.440	3.5190E-08
0.460	2.5714E-08
0.480	1.9146E-08
0.500	1.5947E-08
0.550	1.3150E-08
0.600	2.3933E-08
0.650	2.5928E-08
0.700	2.2326E-08
0.800	1.9127E-08
0.900	2.8705E-08
1.000	3.9889E-08
1.200	4.7866E-08
1.400	1.1197E-07
1.600	1.2796E-07
1.800	2.7477E-07
2.000	6.8289E-07
2.200	2.2380E-06
2.400	7.9358E-06
