Material: glass / ohara / S-LAL14
Optical constants. OHARA Zemax catalog 2017-11-30 (obtained from http://www.ohara-inc.co.jp)See also OHARA glass data sheets
Comments: Recommended
Specs: {"n_absolute": false, "wavelength_vacuum": false, "temperature": "25.0 °C", "thermal_dispersion": [{"type": "Schott formula", "coefficients": "3.12e-06 1.19e-08 2.67e-12 4.01e-07 8.06e-10 0.216"}], "nd": 1.696797, "Vd": 55.532241, "glass_code": 697555, "density": "3.7 g/cm3", "thermal_expansion": [{"temperature_range": "-30 70 °C", "coefficient": "5.7e-06 K-1"}, {"temperature_range": "20 300 °C", "coefficient": "7.1e-06 K-1"}], "dPgF": -0.0082, "climatic_resistance": 1.0, "acid_resistance": 52.2, "phosphate_resistance": 3.0}
Dispersion formula 2, range 0.28 2.4 um, coefficients 0 1.2372097 0.015355132 0.589722623 -0.00030789625 1.3192188 93.7202947
wavelength (um)	k
0.280	7.8132E-06
0.290	6.1369E-06
0.300	4.5290E-06
0.310	3.2300E-06
0.320	2.2704E-06
0.330	1.5226E-06
0.340	9.6503E-07
0.350	5.8690E-07
0.360	3.6622E-07
0.370	2.1051E-07
0.380	1.2660E-07
0.390	8.1759E-08
0.400	5.7818E-08
0.420	3.3591E-08
0.440	2.4596E-08
0.460	1.8349E-08
0.480	1.1476E-08
0.500	7.9657E-09
0.550	8.7623E-09
0.600	1.4345E-08
0.650	1.5541E-08
0.700	1.1152E-08
0.800	1.2745E-08
0.900	1.4338E-08
1.000	1.5931E-08
1.200	1.9118E-08
1.400	1.0072E-07
1.600	1.0227E-07
1.800	2.6018E-07
2.000	7.4949E-07
2.200	2.6405E-06
2.400	1.0077E-05
