Material: glass / ohara / S-LAL20
Optical constants. OHARA Zemax catalog 2017-11-30 (obtained from http://www.ohara-inc.co.jp)See also OHARA glass data sheets
Comments: Recommended
Specs: {"n_absolute": false, "wavelength_vacuum": false, "temperature": "25.0 °C", "thermal_dispersion": [{"type": "Schott formula", "coefficients": "-6.99e-06 8.4e-09 -7.12e-12 6.14e-07 5.44e-10 0.202"}], "nd": 1.6993, "Vd": 51.112184, "density": "4.38 g/cm3", "thermal_expansion": [{"temperature_range": "-30 70 °C", "coefficient": "9e-06 K-1"}], "dPgF": -0.0036, "climatic_resistance": 1.0, "acid_resistance": 53.1, "phosphate_resistance": 4.2}
Dispersion formula 2, range 0.365015 2.32542 um, coefficients 0 1.06788467 0.00518896058 0.75873535 0.0204004357 1.02804682 120.82632
wavelength (um)	k
0.300	1.0994E-05
0.310	5.9402E-06
0.320	3.3342E-06
0.330	1.8733E-06
0.340	1.0835E-06
0.350	6.2150E-07
0.360	3.6622E-07
0.370	2.0104E-07
0.380	1.2344E-07
0.390	8.1759E-08
0.400	5.7818E-08
0.420	4.3734E-08
0.440	4.5817E-08
0.460	4.0489E-08
0.480	3.0681E-08
0.500	2.3945E-08
0.550	1.7542E-08
0.600	2.3933E-08
0.650	3.1129E-08
0.700	2.2326E-08
0.800	1.2745E-08
0.900	2.1518E-08
1.000	2.3909E-08
1.200	1.9118E-08
1.400	3.3473E-08
1.600	6.3822E-08
1.800	2.1649E-07
2.000	5.0119E-07
2.200	1.1766E-06
2.400	3.3299E-06
