Material: glass / ohara / S-NBH53V
Optical constants. OHARA Zemax catalog 2017-11-30 (obtained from http://www.ohara-inc.co.jp)See also OHARA glass data sheets
Comments: Recommended
Specs: {"n_absolute": false, "wavelength_vacuum": false, "temperature": "25.0 °C", "thermal_dispersion": [{"type": "Schott formula", "coefficients": "3.11e-06 7.32e-09 -1.52e-11 8.38e-07 1.06e-09 0.264"}], "nd": 1.737999, "Vd": 32.32659, "density": "3.19 g/cm3", "thermal_expansion": [{"temperature_range": "-30 70 °C", "coefficient": "7.1e-06 K-1"}], "dPgF": 0.0008, "climatic_resistance": 2.0, "acid_resistance": 1.0, "phosphate_resistance": 1.0}
Dispersion formula 2, range 0.365015 2.32542 um, coefficients 0 1.65444141 0.0112485533 0.267453927 0.052027274 2.14530347 167.3661
wavelength (um)	k
0.330	9.2084E-06
0.340	3.4442E-06
0.350	1.3767E-06
0.360	6.7529E-07
0.370	3.7639E-07
0.380	2.2922E-07
0.390	1.5266E-07
0.400	1.0352E-07
0.420	6.0709E-08
0.440	4.2271E-08
0.460	3.3094E-08
0.480	2.6832E-08
0.500	1.9944E-08
0.550	1.3150E-08
0.600	9.5589E-09
0.650	1.0355E-08
0.700	5.5732E-09
0.800	6.3694E-09
0.900	7.1656E-09
1.000	7.9617E-09
1.200	9.5541E-09
1.400	5.5844E-08
1.600	6.3822E-08
1.800	1.4396E-07
2.000	2.5671E-07
2.200	8.7958E-07
2.400	1.4271E-06
