Material: glass / ohara / S-NPH1W
Optical constants. OHARA Zemax catalog 2017-11-30 (obtained from http://www.ohara-inc.co.jp)See also OHARA glass data sheets
Comments: Recommended
Specs: {"n_absolute": false, "wavelength_vacuum": false, "temperature": "25.0 °C", "thermal_dispersion": [{"type": "Schott formula", "coefficients": "-6.7e-06 1.01e-08 -3.04e-11 8.91e-07 1.32e-09 0.324"}], "nd": 1.808095, "Vd": 22.760817, "glass_code": 808228, "density": "3.29 g/cm3", "thermal_expansion": [{"temperature_range": "-30 70 °C", "coefficient": "8.3e-06 K-1"}, {"temperature_range": "20 300 °C", "coefficient": "1.04e-05 K-1"}], "dPgF": 0.0261, "climatic_resistance": 1.0, "acid_resistance": 1.0, "phosphate_resistance": 1.0}
Dispersion formula 2, range 0.38 2.4 um, coefficients 0 1.75156623 0.0135004681 0.364006304 0.0668245147 2.47874141 170.756006
wavelength (um)	k
0.380	3.8494E-06
0.390	1.2429E-06
0.400	4.4328E-07
0.420	1.5039E-07
0.440	9.9438E-08
0.460	8.1431E-08
0.480	6.5494E-08
0.500	5.6098E-08
0.550	3.0745E-08
0.600	1.9137E-08
0.650	1.5541E-08
0.700	1.1152E-08
0.800	6.3694E-09
0.900	7.1656E-09
1.000	7.9617E-09
1.200	9.5541E-09
1.400	4.4653E-08
1.600	7.6624E-08
1.800	2.0195E-07
2.000	4.3563E-07
2.200	1.2329E-06
2.400	2.4414E-06
