Material: glass / ohara / S-NPH2
Optical constants. OHARA Zemax catalog 2017-11-30 (obtained from http://www.ohara-inc.co.jp)See also OHARA glass data sheets
Comments: Recommended - High Index
Specs: {"n_absolute": false, "wavelength_vacuum": false, "temperature": "25.0 °C", "thermal_dispersion": [{"type": "Schott formula", "coefficients": "-4.13e-06 1.29e-08 -2.65e-11 1.02e-06 1.58e-09 0.337"}], "nd": 1.92286, "Vd": 18.896912, "glass_code": 923189, "density": "3.58 g/cm3", "thermal_expansion": [{"temperature_range": "-30 70 °C", "coefficient": "6.7e-06 K-1"}, {"temperature_range": "20 300 °C", "coefficient": "8.3e-06 K-1"}], "dPgF": 0.0386, "climatic_resistance": 1.0, "acid_resistance": 1.0, "phosphate_resistance": 1.0}
Dispersion formula 2, range 0.39 2.4 um, coefficients 0 2.0386951 0.0170796224 0.437269641 0.0749254813 2.96711461 174.155354
wavelength (um)	k
0.390	1.2141E-05
0.400	4.5427E-06
0.420	1.1921E-06
0.440	5.6905E-07
0.460	3.4523E-07
0.480	2.5264E-07
0.500	1.9154E-07
0.550	9.7364E-08
0.600	5.7642E-08
0.650	5.1986E-08
0.700	3.9130E-08
0.800	2.5516E-08
0.900	2.8705E-08
1.000	3.1895E-08
1.200	2.8691E-08
1.400	3.3473E-08
1.600	5.1032E-08
1.800	1.1505E-07
2.000	1.9214E-07
2.200	4.0736E-07
2.400	7.5976E-07
