Material: glass / ohara / S-NSL2
Optical constants. OHARA Zemax catalog 2017-11-30 (obtained from http://www.ohara-inc.co.jp)See also OHARA glass data sheets
Specs: {"n_absolute": false, "wavelength_vacuum": false, "temperature": "25.0 °C", "nd": 1.516016, "Vd": 56.858179, "glass_code": 516568, "glass_status": "preferred", "density": "2.47 g/cm3", "thermal_expansion": [{"temperature_range": "-30 70 °C", "coefficient": "8.8e-06 K-1"}, {"temperature_range": "20 300 °C", "coefficient": "1.08e-05 K-1"}], "dPgF": -0.0016, "acid_resistance": 1.0, "phosphate_resistance": 1.0}
Dispersion formula 2, range 0.3 2.4 um, coefficients 0 0.951239368 0.00513091895 0.313094652 0.0231960516 1.70928507 201.539573
wavelength (um)	k
0.320	1.1727E-05
0.330	4.2265E-06
0.340	1.3821E-06
0.350	4.8561E-07
0.360	1.8948E-07
0.370	8.9683E-08
0.380	4.8774E-08
0.390	2.8058E-08
0.400	1.5955E-08
0.420	1.3396E-08
0.440	1.4034E-08
0.460	1.0998E-08
0.480	1.1476E-08
0.500	7.9657E-09
0.550	4.3790E-09
0.600	9.5589E-09
0.650	1.0355E-08
0.700	1.1152E-08
0.800	6.3694E-09
0.900	1.4338E-08
1.000	1.5931E-08
