Material: glass / ohara / S-PHM51
Optical constants. OHARA Zemax catalog 2017-11-30 (obtained from http://www.ohara-inc.co.jp)See also OHARA glass data sheets
Specs: {"n_absolute": false, "wavelength_vacuum": false, "temperature": "25.0 °C", "thermal_dispersion": [{"type": "Schott formula", "coefficients": "-6.88e-06 1.5e-08 -3.45e-13 8.32e-07 -2.61e-10 0.0"}], "nd": 1.617001, "Vd": 62.800809, "glass_code": 617628, "glass_status": "special", "density": "3.53 g/cm3", "thermal_expansion": [{"temperature_range": "-30 70 °C", "coefficient": "9.7e-06 K-1"}, {"temperature_range": "20 300 °C", "coefficient": "1.11e-05 K-1"}], "dPgF": 0.0031, "climatic_resistance": 2.0, "acid_resistance": 51.2, "phosphate_resistance": 4.0}
Dispersion formula 3, range 0.3 2.4 um, coefficients 2.5759016 -0.010553544 2 0.013895937 -2 0.00026498331 -4 -1.9680543e-06 -6 1.0989977e-07 -8
wavelength (um)	k
0.310	6.2307E-06
0.320	4.3667E-06
0.330	2.7569E-06
0.340	1.6175E-06
0.350	9.1495E-07
0.360	4.9949E-07
0.370	2.6155E-07
0.380	1.4240E-07
0.390	8.4947E-08
0.400	5.1341E-08
0.420	3.0216E-08
0.440	2.8124E-08
0.460	2.2030E-08
0.480	1.9146E-08
0.500	1.1955E-08
0.550	8.7623E-09
0.600	1.4345E-08
0.650	1.5541E-08
0.700	1.1152E-08
0.800	6.3694E-09
0.900	7.1656E-09
