Material: glass / ohara / S-TIL26
Optical constants. OHARA Zemax catalog 2017-11-30 (obtained from http://www.ohara-inc.co.jp)See also OHARA glass data sheets
Comments: Recommended - Lightweight
Specs: {"n_absolute": false, "wavelength_vacuum": false, "temperature": "25.0 °C", "thermal_dispersion": [{"type": "Schott formula", "coefficients": "8.85e-07 1.27e-08 -3.61e-11 5.87e-07 6.12e-10 0.27"}], "nd": 1.567322, "Vd": 42.817076, "glass_code": 567428, "density": "2.57 g/cm3", "thermal_expansion": [{"temperature_range": "-30 70 °C", "coefficient": "7.9e-06 K-1"}, {"temperature_range": "20 300 °C", "coefficient": "9e-06 K-1"}], "dPgF": 0.0009, "climatic_resistance": 1.0, "acid_resistance": 1.0, "phosphate_resistance": 1.0}
Dispersion formula 2, range 0.35 2.4 um, coefficients 0 1.31066488 0.00968897812 0.0941903094 0.0527763106 1.23292644 133.296422
wavelength (um)	k
0.350	7.4066E-06
0.360	2.3519E-06
0.370	8.8656E-07
0.380	3.8656E-07
0.390	1.7557E-07
0.400	9.3675E-08
0.420	3.6968E-08
0.440	2.4596E-08
0.460	1.8349E-08
0.480	1.9146E-08
0.500	1.1955E-08
0.550	8.7623E-09
0.600	9.5589E-09
0.650	1.5541E-08
0.700	1.1152E-08
0.800	6.3694E-09
0.900	1.4338E-08
1.000	1.5931E-08
1.200	1.9118E-08
1.400	5.5844E-08
1.600	8.9440E-08
1.800	3.3330E-07
2.000	8.1636E-07
2.200	2.0402E-06
2.400	2.8805E-06
