Material: glass / ohara / S-TIH18
Optical constants. OHARA Zemax catalog 2017-11-30 (obtained from http://www.ohara-inc.co.jp)See also OHARA glass data sheets
Comments: Recommended - Lightweight
Specs: {"n_absolute": false, "wavelength_vacuum": false, "temperature": "25.0 °C", "thermal_dispersion": [{"type": "Schott formula", "coefficients": "-1.15e-06 1.28e-08 -3.62e-11 7.62e-07 1.01e-09 0.306"}], "nd": 1.721507, "Vd": 29.23233, "glass_code": 722292, "density": "3.07 g/cm3", "thermal_expansion": [{"temperature_range": "-30 70 °C", "coefficient": "8.3e-06 K-1"}, {"temperature_range": "20 300 °C", "coefficient": "9.8e-06 K-1"}], "dPgF": 0.0111, "climatic_resistance": 1.0, "acid_resistance": 1.0, "phosphate_resistance": 1.0}
Dispersion formula 2, range 0.37 2.4 um, coefficients 0 1.59921608 0.0116469304 0.259532164 0.0584824883 2.12454543 186.927779
wavelength (um)	k
0.370	5.0490E-06
0.380	1.8633E-06
0.390	8.1115E-07
0.400	4.4328E-07
0.420	1.6792E-07
0.440	1.0304E-07
0.460	7.7690E-08
0.480	6.1610E-08
0.500	4.8035E-08
0.550	2.1939E-08
0.600	2.3933E-08
0.650	3.6335E-08
0.700	2.7922E-08
0.800	1.2745E-08
0.900	7.1656E-09
1.000	7.9617E-09
1.200	9.5541E-09
1.400	4.4653E-08
1.600	6.3822E-08
1.800	2.0195E-07
2.000	3.5405E-07
2.200	9.3489E-07
2.400	1.4271E-06
