Material: glass / ohara / SSL5
Optical constants. OHARA Zemax catalog 2017-11-30 (obtained from http://www.ohara-inc.co.jp)See also OHARA glass data sheets
Specs: {"n_absolute": false, "wavelength_vacuum": false, "temperature": "25.0 °C", "thermal_dispersion": [{"type": "Schott formula", "coefficients": "7.208e-06 0.0 0.0 0.0 0.0 0.0"}], "nd": 1.521299, "Vd": 52.553447, "glass_code": 521526, "glass_status": "preferred", "density": "2.51 g/cm3", "thermal_expansion": [{"temperature_range": "-30 70 °C", "coefficient": "5.3e-06 K-1"}, {"temperature_range": "20 300 °C", "coefficient": "5.9e-06 K-1"}], "dPgF": -0.0072, "acid_resistance": 2.1, "phosphate_resistance": 2.0}
Dispersion formula 3, range 0.3 2.4 um, coefficients 2.279329 -0.010732907 2 0.012001392 -2 0.00058141137 -4 -4.6205948e-05 -6 2.9557679e-06 -8
wavelength (um)	k
0.300	8.3713E-06
0.310	4.6800E-06
0.320	2.7472E-06
0.330	1.6672E-06
0.340	1.0435E-06
0.350	6.2150E-07
0.360	3.9896E-07
0.370	2.4231E-07
0.380	1.7107E-07
0.390	1.1057E-07
0.400	7.0810E-08
0.420	3.3591E-08
0.440	3.1655E-08
0.460	2.2030E-08
0.480	1.5310E-08
0.500	1.1955E-08
0.550	8.7623E-09
0.600	9.5589E-09
0.650	1.5541E-08
0.700	1.1152E-08
0.800	6.3694E-09
0.900	7.1656E-09
