Material: glass / ohara / TIH11
Optical constants. OHARA Zemax catalog 2017-11-30 (obtained from http://www.ohara-inc.co.jp)See also OHARA glass data sheets
Specs: {"n_absolute": false, "wavelength_vacuum": false, "temperature": "25.0 Â°C", "nd": 1.784723, "Vd": 25.677885, "glass_code": 785257, "glass_status": "preferred"}
Dispersion formula 3, range 0.334 2.325 um, coefficients 3.0547581 -0.013301755 2 0.039295435 -2 0.0028224343 -4 -0.00017708961 -6 2.6536608e-05 -8
wavelength (um)	k
0.334	-0.0000E+00
0.350	-0.0000E+00
0.365	-0.0000E+00
0.370	-0.0000E+00
0.380	-0.0000E+00
0.390	-0.0000E+00
0.400	-0.0000E+00
0.420	-0.0000E+00
0.460	-0.0000E+00
0.500	-0.0000E+00
0.660	-0.0000E+00
1.060	-0.0000E+00
1.529	-0.0000E+00
2.325	-0.0000E+00
