Material: main / TiO2 / Siefke
Optical constants. T. Siefke, S. Kroker, K. Pfeiffer, O. Puffky, K. Dietrich, D. Franta, I. Ohlídal, A. Szeghalmi, E.-B. Kley, A. Tünnermann. Materials pushing the application limits of wire grid polarizers further into the deep ultraviolet spectral range, Adv. Opt. Mater. 4, 1780–1786 (2016) (Numerical data kindly provided by Thomas Siefke)
Comments: Film: prepaired by ALD, 350 nm TiO2. See Ratzsch et al. Nanotechnology 26, 024003 (2015).Measurement: ellipsometer Jobin Yvon UVISEL2 VUV: 1.5-8.7 eV; ellipsometer Jobin Yvon UVISEL: 0.6-6.5 eV; ellipsometer Woollam IRVASE: 300-6500 cm-1; spectrophotometer McPhersom VUVas 2000: 5.6-10.3 eV; spectrophotometer Perkin Elmer Lambda 1050: 0.5-6.7 eV; spectrophotometer Bruker Vertex 80v: 80-7500 cm-1.Fit model: universal dispersion model. See Franta et al. Appl. Opt. 54, 9108-9119 (2015).
wavelength (um)	n	k
0.120181141	1.126620101	0.898838687
0.12298052	1.118333711	0.934645892
0.125845104	1.113253851	0.979068951
0.128776413	1.114336713	1.032410365
0.131776001	1.125242533	1.093976561
0.134845458	1.150376535	1.161474314
0.137986413	1.194107411	1.227671224
0.141200529	1.251752262	1.285337463
0.144489512	1.320271805	1.332378183
0.147855105	1.396285902	1.366137953
0.151299093	1.47530451	1.385318696
0.154823301	1.552957289	1.390446954
0.158429599	1.625667359	1.383124974
0.162119899	1.690399977	1.36562535
0.165896156	1.744724523	1.341145326
0.169760374	1.787449996	1.313728005
0.173714601	1.819058337	1.28753874
0.177760934	1.841505289	1.266019975
0.181901518	1.857600231	1.25141436
0.186138549	1.870360127	1.244736163
0.190474273	1.882567557	1.24601271
0.194910988	1.896560933	1.254596868
0.199451049	1.914186802	1.269436699
0.20409686	1.936834271	1.289268884
0.208850887	1.965497026	1.31274573
0.213715649	2.000836765	1.338519654
0.218693726	2.043243366	1.365308347
0.223787757	2.092902681	1.391956176
0.229000444	2.149894766	1.417493744
0.234334549	2.214352199	1.441174638
0.239792902	2.286701784	1.462432271
0.245378396	2.367975255	1.48065186
0.251093993	2.460076527	1.494612502
0.256942724	2.565703239	1.501484828
0.262927689	2.687356747	1.495519616
0.269052061	2.824780311	1.46726827
0.275319089	2.971030311	1.405302227
0.281732094	3.11017939	1.302392102
0.288294478	3.222211638	1.163575605
0.295009719	3.2952535	1.006604526
0.301881378	3.333070975	0.84984897
0.308913099	3.34730794	0.699282422
0.316108609	3.341955695	0.550080434
0.323471724	3.309312824	0.402446598
0.331006349	3.244983155	0.2698104
0.338716477	3.158651695	0.166031931
0.346606197	3.065566491	0.09388697
0.354679693	2.976581707	0.048110237
0.362941244	2.896907944	0.021830154
0.371395232	2.828999505	0.009244534
0.380046138	2.773411776	0.003973052
0.38889855	2.727527034	0.001737762
0.397957161	2.688871779	0.000773757
0.407226774	2.655677795	0.00035076
0.416712304	2.626720776	0.000161876
0.42641878	2.601141602	7.60E-05
0.43635135	2.578320807	3.64E-05
0.446515278	2.557798123	1.77E-05
0.456915955	2.539221746	8.75E-06
0.467558895	2.52231598	4.40E-06
0.478449741	2.506860113	2.25E-06
0.489594267	2.492674245	1.17E-06
0.500998382	2.479609497	6.16E-07
0.512668134	2.467541064	3.30E-07
0.524609709	2.456363164	1.80E-07
0.536829439	2.445985276	9.91E-08
0.549333803	2.436329289	5.55E-08
0.562129431	2.427327302	3.15E-08
0.575223107	2.418919896	1.81E-08
0.588621775	2.41105477	1.05E-08
0.602332537	2.40368564	6.19E-09
0.616362664	2.396771343	3.67E-09
0.630719595	2.390275109	2.19E-09
0.645410942	2.384163954	1.31E-09
0.660444494	2.378408181	7.76E-10
0.675828222	2.372980951	4.49E-10
0.691570284	2.367857931	2.45E-10
0.707679025	2.363016994	1.16E-10
0.724162987	2.358437951	3.22E-11
0.74103091	2.354102341	0
0.758291737	2.349993228	0
0.775954621	2.346095046	0
0.794028926	2.342393446	0
0.812524235	2.338875173	0
0.831450356	2.335527957	0
0.850817323	2.332340413	0
0.870635404	2.329301957	0
0.890915108	2.326402727	0
0.911667187	2.323633518	0
0.932902643	2.320985717	0
0.954632738	2.318451255	0
0.97686899	2.316022553	0
0.999623192	2.313692479	0
1.022907408	2.311454312	0
1.046733982	2.3093017	0
1.071115548	2.307228633	0
1.096065035	2.305229409	0
1.121595669	2.303298611	0
1.147720988	2.301431076	0
1.174454844	2.299621879	0
1.201811412	2.297866307	0
1.229805196	2.296159841	0
1.258451039	2.294498138	0
1.287764129	2.292877013	0
1.317760009	2.291292426	0
1.348454583	2.289740463	0
1.379864125	2.288217325	0
1.41200529	2.286719313	0
1.444895118	2.285242818	0
1.478551049	2.283784305	9.34592844689e-310
1.512990927	2.282340305	3.53E-292
1.548233013	2.280907403	1.68E-275
1.584295992	2.279482227	1.11E-259
1.621198987	2.278061437	1.12E-244
1.658961562	2.276641715	1.89E-230
1.697603741	2.275219756	5.82E-217
1.737146012	2.273792258	3.54E-204
1.777609341	2.272355913	4.61E-192
1.819015181	2.270907393	1.38E-180
1.861385488	2.269443348	1.02E-169
1.904742726	2.267960387	2.00E-159
1.949109883	2.266455077	1.11E-149
1.994510485	2.264923926	1.83E-140
2.040968602	2.263363376	9.68E-132
2.088508868	2.261769794	1.72E-123
2.137156489	2.260139457	1.08E-115
2.186937258	2.258468542	2.54E-108
2.237877571	2.256753117	2.34E-101
2.290004436	2.254989127	8.85E-95
2.343345492	2.253172378	1.43E-88
2.39792902	2.251298529	1.04E-82
2.453783962	2.249363075	3.50E-77
2.510939933	2.24736133	5.70E-72
2.569427238	2.245288414	4.65E-67
2.629276887	2.243139233	1.97E-62
2.690520613	2.240908463	4.47E-58
2.753190889	2.238590527	5.61E-54
2.817320943	2.236179575	4.02E-50
2.882944778	2.233669463	1.69E-46
2.950097188	2.231053722	4.26E-43
3.018813779	2.228325533	6.66E-40
3.089130985	2.225477697	6.60E-37
3.16108609	2.2225026	4.24E-34
3.234717243	2.219392173	1.81E-31
3.310063487	2.216137857	5.21E-29
3.38716477	2.212730546	1.04E-26
3.466061973	2.209160542	1.46E-24
3.546796928	2.205417493	1.47E-22
3.629412442	2.20149032	1.09E-20
3.713952318	2.19736714	5.95E-19
3.80046138	2.193035173	2.45E-17
3.888985498	2.188480629	7.76E-16
3.979571607	2.183688575	1.90E-14
4.072267738	2.178642773	3.68E-13
4.167123039	2.173325477	5.68E-12
4.264187803	2.16771717	7.07E-11
4.363513497	2.161796223	7.19E-10
4.465152783	2.155538411	6.05E-09
4.569159553	2.148916223	4.25E-08
4.675588951	2.141897763	2.51E-07
4.784497408	2.134444989	1.27E-06
4.895942669	2.126510867	5.49E-06
5.009983824	2.118035381	2.06E-05
5.126681339	2.108941468	6.77E-05
5.246097088	2.099134662	0.000195796
5.368294386	2.088513479	0.0005025
5.493338026	2.07699844	0.001152676
5.621294306	2.064581606	0.002379163
5.752231071	2.05138413	0.004446508
5.886217745	2.037692553	0.007569184
6.02332537	2.023938339	0.011800653
6.163626641	2.010601033	0.016937232
6.307195949	1.998052307	0.022491116
6.454109415	1.986396753	0.027765542
6.604444936	1.97537903	0.032017824
6.758282221	1.964401294	0.034650138
6.915702837	1.952643258	0.035353793
7.076790249	1.939232312	0.03415839
7.24162987	1.923397899	0.031383061
7.410309099	1.904563068	0.027524283
7.582917371	1.882358704	0.023127933
7.759546207	1.85657248	0.01868495
7.940289257	1.827056604	0.014572614
8.125242354	1.793618041	0.011048672
8.314503561	1.755908271	0.008299589
8.508173228	1.713327302	0.006546507
8.706354042	1.664963266	0.006216482
8.909151079	1.609604139	0.0081828
9.116671866	1.545875136	0.014060228
9.329026434	1.47256406	0.0265114
9.546327375	1.389204426	0.049483898
9.768689904	1.297011412	0.08822869
9.996231923	1.200292281	0.148725183
10.22907408	1.108099488	0.235540867
10.46733982	1.033926137	0.346924304
10.71115548	0.988837408	0.470335603
10.96065035	0.971637564	0.587976614
11.21595669	0.969828334	0.688827593
11.47720988	0.96861976	0.773036494
11.74454844	0.957980532	0.849931438
12.01811412	0.93840364	0.933145865
12.29805196	0.922641595	1.029413262
12.58451039	0.923025502	1.128039142
12.87764129	0.932831349	1.210413857
13.17760009	0.927704175	1.273232008
13.48454583	0.887352294	1.339028515
13.79864125	0.818372537	1.443668492
14.1200529	0.756940786	1.606033125
14.44895118	0.739773304	1.810246007
14.78551049	0.778879616	2.024604997
15.12990927	0.866703001	2.223684893
15.48233013	0.987947866	2.392867901
15.84295992	1.125383517	2.526994934
16.21198987	1.263470636	2.629256181
16.58961562	1.391927881	2.709044766
16.97603741	1.507856496	2.777862497
17.37146012	1.614864946	2.844713873
17.77609341	1.719584576	2.913382556
18.19015181	1.827792305	2.982757742
18.61385488	1.942277371	3.049213726
19.04742726	2.062877202	3.109070397
19.49109883	2.187674618	3.159920503
19.94510485	2.314221143	3.200825702
20.40968602	2.440273997	3.231935216
20.88508868	2.564054983	3.254018692
21.37156489	2.684237019	3.268127312
21.86937258	2.799832305	3.275419086
22.37877571	2.910079291	3.277108403
22.90004436	3.014371286	3.274491293
23.43345492	3.11224323	3.269013064
23.9792902	3.203431001	3.262346318
24.53783962	3.288009929	3.25644331
25.10939933	3.366607678	3.253507647
25.69427238	3.440648922	3.255829617
26.29276887	3.512546025	3.265448466
26.90520613	3.58571971	3.283658191
27.53190889	3.66433584	3.310464852
28.17320943	3.752729561	3.344172107
28.82944778	3.854606875	3.381295571
29.50097188	3.972249721	3.41690389
30.18813779	4.105970107	3.445331693
30.89130985	4.253973832	3.461062018
31.6108609	4.412637038	3.459537639
32.34717243	4.577072232	3.437725573
33.10063487	4.741813383	3.394368562
33.8716477	4.901471794	3.329949303
34.66061973	5.051267379	3.246442408
35.46796928	5.187392531	3.146941084
36.29412442	5.3072045	3.035236122
37.13952318	5.409265993	2.915406887
38.0046138	5.49326578	2.791464906
38.88985498	5.559855204	2.667073485
39.79571607	5.610435461	2.545352799
40.72267738	5.646926393	2.428769086
41.67123039	5.67154167	2.31909905
42.64187803	5.686588737	2.21745571
43.63513497	5.694305304	2.124359571
44.65152783	5.696738114	2.039838558
45.69159553	5.695664485	1.963541339
46.75588951	5.692553014	1.894851013
47.84497408	5.688556941	1.832989273
48.95942669	5.684532154	1.777104559
50.09983824	5.681071535	1.726341022
51.26681339	5.678547986	1.679887904
52.46097088	5.677159916	1.637011016
53.68294386	5.676974611	1.597069247
54.93338026	5.677966585	1.559519567
56.21294306	5.680049506	1.523913947
57.52231071	5.683101355	1.489891194
58.86217745	5.686983245	1.457166116
60.2332537	5.69155275	1.425517771
61.63626641	5.696672758	1.394777994
63.07195949	5.702216854	1.364820918
64.54109415	5.708072156	1.335553841
66.04444936	5.714140366	1.306909543
67.58282221	5.720337636	1.278840015
69.15702837	5.726593703	1.251311455
70.76790249	5.732850637	1.224300363
72.4162987	5.739061404	1.197790545
74.10309099	5.745188415	1.171770855
75.82917371	5.75120214	1.146233522
77.59546207	5.757079835	1.121172934
79.40289257	5.762804418	1.096584762
81.25242354	5.768363478	1.072465352
83.14503561	5.773748442	1.048811303
85.08173228	5.77895385	1.025619194
87.06354042	5.783976763	1.002885407
89.09151079	5.788816265	0.980606025
91.16671866	5.793473041	0.958776784
93.29026434	5.797949047	0.937393051
95.46327375	5.802247224	0.916449832
97.68689904	5.80637127	0.895941795
99.96231923	5.810325457	0.875863296
102.2907408	5.814114474	0.856208412
104.6733982	5.81774331	0.83697098
107.1115548	5.821217148	0.818144634
109.6065035	5.824541291	0.799722831
112.1595669	5.827721092	0.781698893
114.7720988	5.830761909	0.764066034
117.4454844	5.833669058	0.746817384
120.1811412	5.836447783	0.72994602
122.9805196	5.839103235	0.713444984
