Material: inorganic / TiN / Shkondin
Optical constants. E. Shkondin, T. Rep√§n, O. Takayama, and A. V. Lavrinenko. High aspect ratio titanium nitride trench structures as plasmonic biosensor, Opt. Mater. Express 7, 4171-4182 (2017) (Numerical data kindly provided by Osamu Takayama)
Comments: 105 nm thick titanium nitride (TiN) film on Si substrate as deposited (not annealed).
Specs: {"n_absolute": true, "wavelength_vacuum": true, "film_thickness": "105 nm", "substrate": "Si"}
wavelength (um)	n	k
0.21073	1.708805	1.639257
0.21389	1.737947	1.645703
0.21705	1.767212	1.651306
0.22021	1.796442	1.655912
0.22337	1.825481	1.659428
0.22652	1.854174	1.661811
0.22968	1.882378	1.663062
0.23284	1.909966	1.663212
0.23601	1.936823	1.662320
0.23917	1.962855	1.660467
0.24233	1.987988	1.657747
0.24549	2.012167	1.654267
0.24865	2.035357	1.650139
0.25181	2.057544	1.645476
0.25497	2.078730	1.640394
0.25814	2.098938	1.635000
0.26130	2.118204	1.629396
0.26446	2.136579	1.623676
0.26763	2.154126	1.617919
0.27079	2.170920	1.612195
0.27395	2.187042	1.606556
0.27712	2.202576	1.601039
0.28028	2.217613	1.595667
0.28345	2.232239	1.590445
0.28661	2.246540	1.585361
0.28978	2.260594	1.580388
0.29294	2.274470	1.575487
0.29611	2.288226	1.570603
0.29927	2.301908	1.565674
0.30244	2.315544	1.560628
0.30561	2.329145	1.555391
0.30877	2.342705	1.549887
0.31194	2.356202	1.544043
0.31511	2.369595	1.537793
0.31828	2.382828	1.531082
0.32144	2.395834	1.523864
0.32461	2.408536	1.516115
0.32778	2.420849	1.507822
0.33095	2.432687	1.498995
0.33412	2.443967	1.489661
0.33728	2.454609	1.479863
0.34045	2.464546	1.469663
0.34362	2.473721	1.459135
0.34679	2.482094	1.448363
0.34996	2.489643	1.437440
0.35313	2.496362	1.426459
0.35630	2.502267	1.415513
0.35947	2.507392	1.404690
0.36264	2.511787	1.394064
0.36581	2.515513	1.383696
0.36898	2.518642	1.373628
0.37215	2.521244	1.363882
0.37532	2.523382	1.354456
0.37849	2.525102	1.345337
0.38166	2.526418	1.336506
0.38483	2.527314	1.327965
0.38800	2.527747	1.319767
0.39117	2.527694	1.312053
0.39434	2.527243	1.305064
0.39752	2.526727	1.299050
0.40069	2.526787	1.293976
0.40386	2.527984	1.289080
0.40703	2.529590	1.283203
0.41020	2.529788	1.277707
0.41337	2.533129	1.275186
0.41654	2.538971	1.262825
0.41972	2.529921	1.259378
0.42289	2.543657	1.258693
0.42606	2.543941	1.241072
0.42923	2.540415	1.237809
0.43240	2.546800	1.232889
0.43558	2.551886	1.220638
0.43875	2.551823	1.207485
0.44192	2.549665	1.196884
0.44509	2.548300	1.188110
0.44827	2.548475	1.179258
0.45144	2.549548	1.168978
0.45461	2.550476	1.156787
0.45778	2.550358	1.142818
0.46096	2.548600	1.127510
0.46413	2.544899	1.111388
0.46730	2.539172	1.094948
0.47047	2.531476	1.078608
0.47365	2.521955	1.062693
0.47682	2.510785	1.047443
0.47999	2.498162	1.033025
0.48316	2.484272	1.019551
0.48634	2.469292	1.007087
0.48951	2.453380	0.995667
0.49268	2.436677	0.985304
0.49585	2.419305	0.975991
0.49903	2.401370	0.967712
0.50220	2.382962	0.960443
0.50537	2.364159	0.954157
0.50854	2.345028	0.948823
0.51172	2.325624	0.944412
0.51489	2.305997	0.940894
0.51806	2.286188	0.938238
0.52123	2.266232	0.936418
0.52440	2.246161	0.935408
0.52758	2.226001	0.935182
0.53075	2.205777	0.935720
0.53392	2.185509	0.937000
0.53709	2.165216	0.939004
0.54026	2.144917	0.941715
0.54344	2.124627	0.945118
0.54661	2.104360	0.949197
0.54978	2.084132	0.953941
0.55295	2.063956	0.959338
0.55612	2.043846	0.965378
0.55929	2.023815	0.972049
0.56246	2.003876	0.979343
0.56563	1.984043	0.987252
0.56881	1.964330	0.995767
0.57198	1.944749	1.004881
0.57515	1.925314	1.014585
0.57832	1.906041	1.024873
0.58149	1.886943	1.035735
0.58466	1.868034	1.047166
0.58783	1.849331	1.059155
0.59100	1.830847	1.071694
0.59417	1.812599	1.084775
0.59734	1.794601	1.098387
0.60051	1.776869	1.112520
0.60368	1.759419	1.127163
0.60685	1.742264	1.142305
0.61001	1.725421	1.157931
0.61318	1.708904	1.174029
0.61635	1.692727	1.190584
0.61952	1.676903	1.207582
0.62269	1.661446	1.225006
0.62586	1.646368	1.242839
0.62902	1.631679	1.261065
0.63219	1.617391	1.279664
0.63536	1.603513	1.298620
0.63853	1.590053	1.317912
0.64169	1.577019	1.337521
0.64486	1.564416	1.357427
0.64803	1.552251	1.377611
0.65119	1.540525	1.398053
0.65436	1.529243	1.418734
0.65752	1.518405	1.439632
0.66069	1.508013	1.460730
0.66386	1.498064	1.482007
0.66702	1.488559	1.503446
0.67019	1.479493	1.525028
0.67335	1.470864	1.546735
0.67652	1.462667	1.568551
0.67968	1.454897	1.590459
0.68284	1.447548	1.612444
0.68601	1.440613	1.634491
0.68917	1.434086	1.656585
0.69233	1.427959	1.678714
0.69550	1.422225	1.700865
0.69866	1.416875	1.723025
0.70182	1.411901	1.745184
0.70498	1.407294	1.767331
0.70814	1.403045	1.789457
0.71131	1.399146	1.811553
0.71447	1.395587	1.833610
0.71763	1.392360	1.855620
0.72079	1.389456	1.877577
0.72395	1.386865	1.899475
0.72711	1.384580	1.921306
0.73027	1.382591	1.943067
0.73343	1.380890	1.964751
0.73658	1.379469	1.986355
0.73974	1.378318	2.007874
0.74290	1.377431	2.029305
0.74606	1.376799	2.050644
0.74922	1.376415	2.071890
0.75237	1.376270	2.093038
0.75553	1.376359	2.114088
0.75869	1.376673	2.135036
0.76184	1.377206	2.155882
0.76500	1.377950	2.176623
0.76815	1.378901	2.197259
0.77131	1.380051	2.217788
0.77446	1.381394	2.238211
0.77762	1.382924	2.258525
0.78077	1.384636	2.278731
0.78392	1.386524	2.298827
0.78708	1.388583	2.318815
0.79023	1.390807	2.338693
0.79338	1.393193	2.358462
0.79653	1.395734	2.378122
0.79968	1.398426	2.397673
0.80283	1.401265	2.417114
0.80598	1.404246	2.436448
0.80913	1.407366	2.455673
0.81228	1.410619	2.474791
0.81543	1.414003	2.493801
0.81858	1.417514	2.512705
0.82173	1.421147	2.531503
0.82488	1.424900	2.550196
0.82803	1.428769	2.568783
0.83117	1.432750	2.587267
0.83432	1.436841	2.605647
0.83746	1.441039	2.623925
0.84061	1.445340	2.642101
0.84375	1.449742	2.660176
0.84690	1.454242	2.678151
0.85004	1.458837	2.696027
0.85319	1.463525	2.713803
0.85633	1.468303	2.731482
0.85947	1.473169	2.749065
0.86261	1.478121	2.766550
0.86576	1.483155	2.783940
0.86890	1.488271	2.801237
0.87204	1.493466	2.818439
0.87518	1.498738	2.835549
0.87832	1.504085	2.852566
0.88146	1.509505	2.869493
0.88460	1.514995	2.886329
0.88773	1.520556	2.903075
0.89087	1.526184	2.919734
0.89401	1.531878	2.936304
0.89714	1.537636	2.952787
0.90028	1.543457	2.969184
0.90342	1.549340	2.985495
0.90655	1.555282	3.001721
0.90968	1.561282	3.017864
0.91282	1.567339	3.033923
0.91595	1.573452	3.049901
0.91908	1.579619	3.065796
0.92222	1.585838	3.081611
0.92535	1.592110	3.097346
0.92848	1.598432	3.113001
0.93161	1.604803	3.128577
0.93474	1.611222	3.144076
0.93787	1.617688	3.159497
0.94099	1.624200	3.174842
0.94412	1.630757	3.190111
0.94725	1.637358	3.205304
0.95038	1.644002	3.220424
0.95350	1.650687	3.235469
0.95663	1.657413	3.250441
0.95975	1.664180	3.265341
0.96288	1.670985	3.280168
0.96600	1.677829	3.294925
0.96912	1.684710	3.309610
0.97225	1.691627	3.324226
0.97537	1.698580	3.338772
0.97849	1.705568	3.353249
0.98161	1.712591	3.367659
0.98473	1.719646	3.382000
0.98785	1.726735	3.396274
0.99097	1.733855	3.410482
0.99408	1.741006	3.424624
0.99720	1.748189	3.438700
1.01269	1.784331	3.507738
1.01946	1.800363	3.537467
1.02624	1.816528	3.566927
1.03302	1.832822	3.596124
1.03979	1.849239	3.625063
1.04658	1.865775	3.653748
1.05336	1.882424	3.682182
1.06014	1.899183	3.710370
1.06693	1.916048	3.738316
1.07372	1.933014	3.766024
1.08051	1.950078	3.793497
1.08730	1.967236	3.820739
1.09410	1.984485	3.847754
1.10089	2.001821	3.874545
1.10769	2.019240	3.901115
1.11449	2.036741	3.927467
1.12129	2.054319	3.953606
1.12810	2.071973	3.979533
1.13490	2.089699	4.005252
1.14171	2.107495	4.030766
1.14852	2.125357	4.056078
1.15533	2.143285	4.081190
1.16214	2.161274	4.106106
1.16896	2.179324	4.130827
1.17578	2.197432	4.155357
1.18259	2.215595	4.179699
1.18942	2.233812	4.203854
1.19624	2.252081	4.227825
1.20306	2.270399	4.251614
1.20989	2.288765	4.275224
1.21672	2.307177	4.298658
1.22355	2.325634	4.321916
1.23038	2.344134	4.345002
1.23721	2.362674	4.367918
1.24405	2.381254	4.390666
1.25088	2.399872	4.413247
1.25772	2.418527	4.435665
1.26456	2.437216	4.457920
1.27141	2.455940	4.480015
1.27825	2.474696	4.501951
1.28510	2.493482	4.523731
1.29195	2.512299	4.545357
1.29880	2.531144	4.566829
1.30565	2.550017	4.588151
1.31251	2.568916	4.609323
1.31936	2.587841	4.630348
1.32622	2.606789	4.651226
1.33308	2.625760	4.671960
1.33994	2.644753	4.692552
1.34680	2.663768	4.713002
1.35367	2.682802	4.733313
1.36054	2.701856	4.753485
1.36741	2.720927	4.773521
1.37428	2.740016	4.793422
1.38115	2.759122	4.813190
1.38803	2.778243	4.832825
1.39490	2.797379	4.852329
1.40178	2.816528	4.871704
1.40866	2.835692	4.890950
1.41554	2.854867	4.910070
1.42243	2.874055	4.929065
1.42931	2.893253	4.947935
1.43620	2.912462	4.966683
1.44309	2.931680	4.985309
1.44998	2.950908	5.003815
1.45688	2.970143	5.022201
1.46377	2.989387	5.040470
1.47067	3.008638	5.058622
1.47757	3.027895	5.076658
1.48447	3.047159	5.094581
1.49137	3.066428	5.112389
1.49828	3.085702	5.130086
1.50518	3.104980	5.147671
1.51209	3.124262	5.165147
1.51900	3.143548	5.182513
1.52591	3.162837	5.199772
1.53283	3.182127	5.216924
1.53974	3.201421	5.233970
1.54666	3.220715	5.250911
1.55358	3.240011	5.267749
1.56050	3.259307	5.284484
1.56742	3.278603	5.301117
1.57435	3.297900	5.317649
1.58128	3.317196	5.334082
1.58820	3.336491	5.350415
1.59514	3.355785	5.366651
1.60207	3.375077	5.382789
1.60900	3.394367	5.398831
1.61594	3.413655	5.414778
1.62288	3.432940	5.430630
1.62982	3.452222	5.446389
1.63676	3.471501	5.462055
1.64370	3.490777	5.477629
1.65065	3.510048	5.493112
1.65759	3.529315	5.508505
1.66454	3.548578	5.523808
1.67150	3.567836	5.539023
1.67845	3.587089	5.554150
1.68540	3.606338	5.569190
