Material: inorganic / TiN / Shkondin-800
Optical constants. E. Shkondin, T. Repän, O. Takayama, and A. V. Lavrinenko. High aspect ratio titanium nitride trench structures as plasmonic biosensor, Opt. Mater. Express 7, 4171-4182 (2017) (Numerical data kindly provided by Osamu Takayama)
Comments: 105 nm thick titanium nitride (TiN) film on Si substrate annealed at 800 °C.
Specs: {"n_absolute": true, "wavelength_vacuum": true, "film_thickness": "105 nm", "substrate": "Si", "annealing_temperature": "800 °C"}
wavelength (um)	n	k
0.21073	1.756608	1.582417
0.21389	1.800542	1.582953
0.21705	1.842714	1.579977
0.22021	1.882911	1.573855
0.22337	1.920962	1.564945
0.22652	1.956740	1.553591
0.22968	1.990156	1.540124
0.23284	2.021155	1.524858
0.23601	2.049716	1.508090
0.23917	2.075844	1.490097
0.24233	2.099566	1.471133
0.24549	2.120932	1.451433
0.24865	2.140005	1.431211
0.25181	2.156863	1.410658
0.25497	2.171592	1.389946
0.25814	2.184287	1.369226
0.26130	2.195043	1.348633
0.26446	2.203962	1.328282
0.26763	2.211144	1.308274
0.27079	2.216689	1.288697
0.27395	2.220694	1.269624
0.27712	2.223255	1.251119
0.28028	2.224462	1.233235
0.28345	2.224403	1.216018
0.28661	2.223161	1.199504
0.28978	2.220815	1.183728
0.29294	2.217440	1.168716
0.29611	2.213107	1.154494
0.29927	2.207883	1.141081
0.30244	2.201832	1.128499
0.30561	2.195015	1.116765
0.30877	2.187492	1.105900
0.31194	2.179322	1.095922
0.31511	2.170563	1.086852
0.31828	2.161273	1.078710
0.32144	2.151514	1.071522
0.32461	2.141350	1.065311
0.32778	2.130852	1.060104
0.33095	2.120098	1.055930
0.33412	2.109175	1.052816
0.33728	2.098182	1.050787
0.34045	2.087232	1.049865
0.34362	2.076454	1.050066
0.34679	2.065999	1.051389
0.34996	2.056034	1.053820
0.35313	2.046752	1.057315
0.35630	2.038362	1.061796
0.35947	2.031092	1.067136
0.36264	2.025176	1.073149
0.36581	2.020847	1.079573
0.36898	2.018310	1.086056
0.37215	2.017716	1.092148
0.37532	2.019123	1.097292
0.37849	2.022437	1.100832
0.38166	2.027348	1.102041
0.38483	2.033245	1.100187
0.38800	2.039131	1.094662
0.39117	2.043574	1.085221
0.39434	2.044798	1.072367
0.39752	2.041166	1.057849
0.40069	2.032442	1.044840
0.40386	2.021656	1.036379
0.40703	2.014407	1.030801
0.41020	2.010596	1.020242
0.41337	2.000249	1.003795
0.41654	1.982427	0.992685
0.41972	1.967805	0.987103
0.42289	1.955997	0.978467
0.42606	1.940857	0.966839
0.42923	1.921500	0.956170
0.43240	1.899859	0.948030
0.43558	1.877339	0.942101
0.43875	1.854392	0.937723
0.44192	1.830985	0.934457
0.44509	1.806944	0.932118
0.44827	1.782078	0.930688
0.45144	1.756225	0.930277
0.45461	1.729281	0.931085
0.45778	1.701223	0.933382
0.46096	1.672133	0.937473
0.46413	1.642206	0.943653
0.46730	1.611741	0.952165
0.47047	1.581116	0.963167
0.47365	1.550751	0.976702
0.47682	1.521064	0.992705
0.47999	1.492439	1.011001
0.48316	1.465196	1.031334
0.48634	1.439571	1.053391
0.48951	1.415712	1.076834
0.49268	1.393682	1.101324
0.49585	1.373472	1.126547
0.49903	1.355014	1.152221
0.50220	1.338199	1.178112
0.50537	1.322892	1.204030
0.50854	1.308945	1.229831
0.51172	1.296209	1.255411
0.51489	1.284541	1.280698
0.51806	1.273806	1.305650
0.52123	1.263883	1.330247
0.52440	1.254665	1.354483
0.52758	1.246060	1.378366
0.53075	1.237989	1.401911
0.53392	1.230384	1.425139
0.53709	1.223190	1.448072
0.54026	1.216361	1.470734
0.54344	1.209857	1.493150
0.54661	1.203648	1.515344
0.54978	1.197708	1.537337
0.55295	1.192017	1.559149
0.55612	1.186558	1.580800
0.55929	1.181317	1.602307
0.56246	1.176283	1.623683
0.56563	1.171447	1.644942
0.56881	1.166803	1.666096
0.57198	1.162344	1.687155
0.57515	1.158064	1.708128
0.57832	1.153961	1.729022
0.58149	1.150030	1.749843
0.58466	1.146267	1.770598
0.58783	1.142672	1.791289
0.59100	1.139239	1.811923
0.59417	1.135969	1.832501
0.59734	1.132857	1.853027
0.60051	1.129902	1.873502
0.60368	1.127103	1.893929
0.60685	1.124456	1.914310
0.61001	1.121960	1.934644
0.61318	1.119612	1.954933
0.61635	1.117412	1.975178
0.61952	1.115356	1.995380
0.62269	1.113444	2.015539
0.62586	1.111672	2.035654
0.62902	1.110039	2.055727
0.63219	1.108542	2.075758
0.63536	1.107180	2.095746
0.63853	1.105952	2.115691
0.64169	1.104853	2.135593
0.64486	1.103884	2.155453
0.64803	1.103042	2.175270
0.65119	1.102324	2.195043
0.65436	1.101730	2.214774
0.65752	1.101256	2.234461
0.66069	1.100901	2.254105
0.66386	1.100664	2.273705
0.66702	1.100542	2.293261
0.67019	1.100534	2.312773
0.67335	1.100637	2.332242
0.67652	1.100851	2.351665
0.67968	1.101172	2.371045
0.68284	1.101600	2.390379
0.68601	1.102133	2.409670
0.68917	1.102769	2.428915
0.69233	1.103507	2.448115
0.69550	1.104344	2.467270
0.69866	1.105280	2.486381
0.70182	1.106312	2.505446
0.70498	1.107440	2.524465
0.70814	1.108662	2.543440
0.71131	1.109975	2.562369
0.71447	1.111380	2.581253
0.71763	1.112874	2.600091
0.72079	1.114457	2.618884
0.72395	1.116126	2.637632
0.72711	1.117880	2.656333
0.73027	1.119719	2.674990
0.73343	1.121641	2.693601
0.73658	1.123644	2.712166
0.73974	1.125727	2.730686
0.74290	1.127890	2.749160
0.74606	1.130131	2.767589
0.74922	1.132449	2.785972
0.75237	1.134842	2.804311
0.75553	1.137310	2.822603
0.75869	1.139852	2.840851
0.76184	1.142466	2.859052
0.76500	1.145152	2.877209
0.76815	1.147908	2.895321
0.77131	1.150734	2.913387
0.77446	1.153628	2.931408
0.77762	1.156590	2.949385
0.78077	1.159618	2.967316
0.78392	1.162712	2.985202
0.78708	1.165870	3.003043
0.79023	1.169093	3.020840
0.79338	1.172379	3.038592
0.79653	1.175726	3.056299
0.79968	1.179135	3.073961
0.80283	1.182604	3.091579
0.80598	1.186133	3.109152
0.80913	1.189721	3.126681
0.81228	1.193367	3.144166
0.81543	1.197070	3.161606
0.81858	1.200830	3.179002
0.82173	1.204645	3.196354
0.82488	1.208516	3.213662
0.82803	1.212440	3.230926
0.83117	1.216419	3.248146
0.83432	1.220450	3.265322
0.83746	1.224533	3.282455
0.84061	1.228668	3.299543
0.84375	1.232854	3.316589
0.84690	1.237090	3.333591
0.85004	1.241376	3.350549
0.85319	1.245711	3.367464
0.85633	1.250094	3.384336
0.85947	1.254524	3.401165
0.86261	1.259002	3.417950
0.86576	1.263526	3.434692
0.86890	1.268097	3.451392
0.87204	1.272712	3.468049
0.87518	1.277372	3.484663
0.87832	1.282077	3.501235
0.88146	1.286825	3.517764
0.88460	1.291616	3.534250
0.88773	1.296450	3.550694
0.89087	1.301326	3.567096
0.89401	1.306244	3.583455
0.89714	1.311202	3.599773
0.90028	1.316201	3.616048
0.90342	1.321240	3.632281
0.90655	1.326319	3.648472
0.90968	1.331436	3.664622
0.91282	1.336592	3.680729
0.91595	1.341786	3.696796
0.91908	1.347018	3.712821
0.92222	1.352287	3.728804
0.92535	1.357592	3.744745
0.92848	1.362934	3.760646
0.93161	1.368311	3.776505
0.93474	1.373724	3.792323
0.93787	1.379172	3.808101
0.94099	1.384654	3.823837
0.94412	1.390170	3.839533
0.94725	1.395720	3.855187
0.95038	1.401303	3.870802
0.95350	1.406919	3.886375
0.95663	1.412568	3.901908
0.95975	1.418248	3.917401
0.96288	1.423960	3.932853
0.96600	1.429703	3.948265
0.96912	1.435477	3.963637
0.97225	1.441281	3.978969
0.97537	1.447116	3.994261
0.97849	1.452980	4.009513
0.98161	1.458874	4.024726
0.98473	1.464797	4.039898
0.98785	1.470748	4.055031
0.99097	1.476727	4.070125
0.99408	1.482735	4.085179
0.99720	1.488770	4.100194
1.01269	1.519176	4.174271
1.01946	1.532685	4.206391
1.02624	1.546322	4.238352
1.03302	1.560085	4.270155
1.03979	1.573971	4.301802
1.04658	1.587977	4.333292
1.05336	1.602100	4.364627
1.06014	1.616338	4.395808
1.06693	1.630687	4.426834
1.07372	1.645147	4.457708
1.08051	1.659714	4.488429
1.08730	1.674385	4.518998
1.09410	1.689159	4.549417
1.10089	1.704034	4.579685
1.10769	1.719005	4.609804
1.11449	1.734073	4.639775
1.12129	1.749234	4.669597
1.12810	1.764487	4.699273
1.13490	1.779828	4.728802
1.14171	1.795257	4.758186
1.14852	1.810772	4.787425
1.15533	1.826369	4.816520
1.16214	1.842048	4.845471
1.16896	1.857806	4.874281
1.17578	1.873642	4.902948
1.18259	1.889554	4.931475
1.18942	1.905540	4.959862
1.19624	1.921598	4.988109
1.20306	1.937727	5.016217
1.20989	1.953924	5.044187
1.21672	1.970189	5.072021
1.22355	1.986519	5.099718
1.23038	2.002913	5.127279
1.23721	2.019370	5.154706
1.24405	2.035888	5.181998
1.25088	2.052465	5.209157
1.25772	2.069100	5.236184
1.26456	2.085792	5.263079
1.27141	2.102538	5.289843
1.27825	2.119339	5.316477
1.28510	2.136191	5.342981
1.29195	2.153095	5.369357
1.29880	2.170048	5.395604
1.30565	2.187050	5.421725
1.31251	2.204099	5.447719
1.31936	2.221193	5.473588
1.32622	2.238332	5.499330
1.33308	2.255515	5.524950
1.33994	2.272740	5.550445
1.34680	2.290006	5.575818
1.35367	2.307312	5.601070
1.36054	2.324657	5.626200
1.36741	2.342039	5.651209
1.37428	2.359458	5.676098
1.38115	2.376913	5.700869
1.38803	2.394402	5.725521
1.39490	2.411924	5.750056
1.40178	2.429480	5.774474
1.40866	2.447066	5.798776
1.41554	2.464684	5.822963
1.42243	2.482331	5.847035
1.42931	2.500006	5.870994
1.43620	2.517710	5.894838
1.44309	2.535440	5.918571
1.44998	2.553197	5.942192
1.45688	2.570978	5.965701
1.46377	2.588784	5.989100
1.47067	2.606613	6.012390
1.47757	2.624465	6.035571
1.48447	2.642339	6.058644
1.49137	2.660233	6.081608
1.49828	2.678148	6.104467
1.50518	2.696082	6.127218
1.51209	2.714036	6.149865
1.51900	2.732007	6.172407
1.52591	2.749996	6.194845
1.53283	2.768001	6.217179
1.53974	2.786022	6.239410
1.54666	2.804058	6.261539
1.55358	2.822109	6.283567
1.56050	2.840174	6.305494
1.56742	2.858252	6.327321
1.57435	2.876343	6.349049
1.58128	2.894445	6.370677
1.58820	2.912559	6.392208
1.59514	2.930684	6.413641
1.60207	2.948820	6.434977
1.60900	2.966964	6.456217
1.61594	2.985118	6.477362
1.62288	3.003280	6.498411
1.62982	3.021450	6.519366
1.63676	3.039628	6.540228
1.64370	3.057813	6.560996
1.65065	3.076004	6.581672
1.65759	3.094200	6.602256
1.66454	3.112403	6.622749
1.67150	3.130610	6.643152
1.67845	3.148822	6.663464
1.68540	3.167038	6.683687
