Material: inorganic / TiN / Shkondin-700
Optical constants. E. Shkondin, T. Repän, O. Takayama, and A. V. Lavrinenko. High aspect ratio titanium nitride trench structures as plasmonic biosensor, Opt. Mater. Express 7, 4171-4182 (2017) (Numerical data kindly provided by Osamu Takayama)
Comments: 105 nm thick titanium nitride (TiN) film on Si substrate annealed at 700 °C.
Specs: {"n_absolute": true, "wavelength_vacuum": true, "film_thickness": "105 nm", "substrate": "Si", "annealing_temperature": "700 °C"}
wavelength (um)	n	k
0.21073	1.730231	1.561166
0.21389	1.763656	1.564840
0.21705	1.796087	1.566580
0.22021	1.827448	1.566567
0.22337	1.857679	1.564976
0.22652	1.886741	1.561969
0.22968	1.914607	1.557702
0.23284	1.941263	1.552320
0.23601	1.966708	1.545958
0.23917	1.990950	1.538741
0.24233	2.014008	1.530783
0.24549	2.035905	1.522190
0.24865	2.056671	1.513055
0.25181	2.076343	1.503465
0.25497	2.094957	1.493495
0.25814	2.112556	1.483210
0.26130	2.129183	1.472669
0.26446	2.144881	1.461921
0.26763	2.159694	1.451007
0.27079	2.173664	1.439962
0.27395	2.186833	1.428813
0.27712	2.199239	1.417582
0.28028	2.210921	1.406283
0.28345	2.221911	1.394928
0.28661	2.232241	1.383522
0.28978	2.241936	1.372067
0.29294	2.251021	1.360563
0.29611	2.259514	1.349004
0.29927	2.267428	1.337385
0.30244	2.274773	1.325698
0.30561	2.281554	1.313934
0.30877	2.287771	1.302084
0.31194	2.293416	1.290140
0.31511	2.298481	1.278096
0.31828	2.302947	1.265946
0.32144	2.306795	1.253689
0.32461	2.309998	1.241330
0.32778	2.312525	1.228876
0.33095	2.314341	1.216343
0.33412	2.315406	1.203757
0.33728	2.315682	1.191151
0.34045	2.315125	1.178574
0.34362	2.313697	1.166087
0.34679	2.311361	1.153767
0.34996	2.308094	1.141710
0.35313	2.303882	1.130032
0.35630	2.298737	1.118867
0.35947	2.292701	1.108369
0.36264	2.285858	1.098704
0.36581	2.278349	1.090044
0.36898	2.270383	1.082549
0.37215	2.262251	1.076344
0.37532	2.254330	1.071476
0.37849	2.247076	1.067871
0.38166	2.240985	1.065265
0.38483	2.236517	1.063146
0.38800	2.233952	1.060714
0.39117	2.233184	1.056925
0.39434	2.233468	1.050710
0.39752	2.233289	1.041477
0.40069	2.230712	1.029921
0.40386	2.224873	1.018538
0.40703	2.218246	1.009851
0.41020	2.215095	1.001386
0.41337	2.212699	0.987085
0.41654	2.204124	0.970017
0.41972	2.192632	0.956050
0.42289	2.181840	0.942039
0.42606	2.169029	0.925887
0.42923	2.152335	0.909377
0.43240	2.132057	0.894295
0.43558	2.109081	0.881534
0.43875	2.084293	0.871444
0.44192	2.058476	0.864033
0.44509	2.032232	0.859069
0.44827	2.005933	0.856203
0.45144	1.979737	0.855091
0.45461	1.953663	0.855480
0.45778	1.927667	0.857227
0.46096	1.901717	0.860283
0.46413	1.875824	0.864648
0.46730	1.850043	0.870328
0.47047	1.824455	0.877314
0.47365	1.799152	0.885568
0.47682	1.774213	0.895034
0.47999	1.749702	0.905644
0.48316	1.725663	0.917329
0.48634	1.702130	0.930028
0.48951	1.679129	0.943687
0.49268	1.656685	0.958261
0.49585	1.634828	0.973709
0.49903	1.613589	0.989992
0.50220	1.593003	1.007066
0.50537	1.573106	1.024882
0.50854	1.553934	1.043387
0.51172	1.535515	1.062518
0.51489	1.517873	1.082210
0.51806	1.501022	1.102394
0.52123	1.484969	1.123001
0.52440	1.469711	1.143961
0.52758	1.455237	1.165207
0.53075	1.441529	1.186678
0.53392	1.428561	1.208317
0.53709	1.416306	1.230072
0.54026	1.404729	1.251900
0.54344	1.393796	1.273761
0.54661	1.383469	1.295625
0.54978	1.373713	1.317465
0.55295	1.364490	1.339260
0.55612	1.355766	1.360994
0.55929	1.347507	1.382656
0.56246	1.339682	1.404237
0.56563	1.332261	1.425733
0.56881	1.325217	1.447141
0.57198	1.318527	1.468461
0.57515	1.312166	1.489693
0.57832	1.306116	1.510842
0.58149	1.300358	1.531909
0.58466	1.294875	1.552899
0.58783	1.289654	1.573817
0.59100	1.284682	1.594667
0.59417	1.279948	1.615455
0.59734	1.275442	1.636185
0.60051	1.271156	1.656861
0.60368	1.267083	1.677489
0.60685	1.263216	1.698072
0.61001	1.259549	1.718615
0.61318	1.256079	1.739120
0.61635	1.252801	1.759591
0.61952	1.249711	1.780030
0.62269	1.246807	1.800440
0.62586	1.244085	1.820823
0.62902	1.241544	1.841181
0.63219	1.239181	1.861514
0.63536	1.236995	1.881825
0.63853	1.234984	1.902113
0.64169	1.233146	1.922379
0.64486	1.231480	1.942623
0.64803	1.229984	1.962845
0.65119	1.228659	1.983045
0.65436	1.227500	2.003223
0.65752	1.226509	2.023378
0.66069	1.225684	2.043509
0.66386	1.225022	2.063615
0.66702	1.224524	2.083696
0.67019	1.224187	2.103750
0.67335	1.224011	2.123776
0.67652	1.223994	2.143774
0.67968	1.224135	2.163741
0.68284	1.224432	2.183676
0.68601	1.224883	2.203579
0.68917	1.225488	2.223448
0.69233	1.226244	2.243281
0.69550	1.227151	2.263077
0.69866	1.228206	2.282835
0.70182	1.229407	2.302553
0.70498	1.230754	2.322230
0.70814	1.232243	2.341865
0.71131	1.233875	2.361457
0.71447	1.235646	2.381004
0.71763	1.237555	2.400505
0.72079	1.239600	2.419959
0.72395	1.241780	2.439364
0.72711	1.244092	2.458721
0.73027	1.246535	2.478026
0.73343	1.249106	2.497281
0.73658	1.251805	2.516482
0.73974	1.254628	2.535630
0.74290	1.257575	2.554724
0.74606	1.260643	2.573762
0.74922	1.263831	2.592745
0.75237	1.267137	2.611670
0.75553	1.270558	2.630538
0.75869	1.274093	2.649348
0.76184	1.277740	2.668098
0.76500	1.281498	2.686789
0.76815	1.285365	2.705420
0.77131	1.289338	2.723990
0.77446	1.293417	2.742498
0.77762	1.297599	2.760945
0.78077	1.301882	2.779329
0.78392	1.306266	2.797651
0.78708	1.310747	2.815909
0.79023	1.315325	2.834105
0.79338	1.319999	2.852236
0.79653	1.324765	2.870303
0.79968	1.329623	2.888306
0.80283	1.334572	2.906244
0.80598	1.339608	2.924117
0.80913	1.344732	2.941925
0.81228	1.349942	2.959669
0.81543	1.355235	2.977346
0.81858	1.360611	2.994958
0.82173	1.366068	3.012505
0.82488	1.371605	3.029986
0.82803	1.377220	3.047400
0.83117	1.382912	3.064749
0.83432	1.388679	3.082032
0.83746	1.394521	3.099250
0.84061	1.400435	3.116401
0.84375	1.406421	3.133487
0.84690	1.412478	3.150506
0.85004	1.418603	3.167460
0.85319	1.424796	3.184348
0.85633	1.431056	3.201170
0.85947	1.437381	3.217927
0.86261	1.443770	3.234618
0.86576	1.450222	3.251243
0.86890	1.456737	3.267804
0.87204	1.463312	3.284299
0.87518	1.469947	3.300729
0.87832	1.476640	3.317094
0.88146	1.483391	3.333394
0.88460	1.490199	3.349630
0.88773	1.497062	3.365801
0.89087	1.503980	3.381908
0.89401	1.510951	3.397950
0.89714	1.517975	3.413929
0.90028	1.525050	3.429844
0.90342	1.532176	3.445695
0.90655	1.539352	3.461483
0.90968	1.546577	3.477208
0.91282	1.553850	3.492869
0.91595	1.561170	3.508469
0.91908	1.568536	3.524005
0.92222	1.575947	3.539480
0.92535	1.583403	3.554892
0.92848	1.590903	3.570242
0.93161	1.598446	3.585531
0.93474	1.606031	3.600758
0.93787	1.613658	3.615924
0.94099	1.621325	3.631029
0.94412	1.629032	3.646074
0.94725	1.636778	3.661058
0.95038	1.644563	3.675982
0.95350	1.652386	3.690846
0.95663	1.660245	3.705650
0.95975	1.668141	3.720396
0.96288	1.676073	3.735081
0.96600	1.684040	3.749708
0.96912	1.692041	3.764276
0.97225	1.700076	3.778786
0.97537	1.708144	3.793238
0.97849	1.716245	3.807631
0.98161	1.724377	3.821968
0.98473	1.732541	3.836246
0.98785	1.740736	3.850468
0.99097	1.748961	3.864633
0.99408	1.757215	3.878741
0.99720	1.765499	3.892793
1.01269	1.807099	3.961835
1.01946	1.825512	3.991625
1.02624	1.844057	4.021180
1.03302	1.862729	4.050504
1.03979	1.881524	4.079598
1.04658	1.900438	4.108465
1.05336	1.919467	4.137106
1.06014	1.938607	4.165525
1.06693	1.957854	4.193723
1.07372	1.977204	4.221702
1.08051	1.996654	4.249465
1.08730	2.016201	4.277015
1.09410	2.035841	4.304352
1.10089	2.055570	4.331480
1.10769	2.075387	4.358399
1.11449	2.095287	4.385114
1.12129	2.115268	4.411625
1.12810	2.135328	4.437936
1.13490	2.155462	4.464046
1.14171	2.175669	4.489960
1.14852	2.195946	4.515678
1.15533	2.216290	4.541204
1.16214	2.236700	4.566538
1.16896	2.257173	4.591683
1.17578	2.277706	4.616641
1.18259	2.298297	4.641413
1.18942	2.318945	4.666002
1.19624	2.339647	4.690410
1.20306	2.360400	4.714637
1.20989	2.381204	4.738687
1.21672	2.402056	4.762561
1.22355	2.422955	4.786260
1.23038	2.443898	4.809787
1.23721	2.464884	4.833143
1.24405	2.485911	4.856331
1.25088	2.506978	4.879350
1.25772	2.528082	4.902205
1.26456	2.549223	4.924895
1.27141	2.570399	4.947423
1.27825	2.591609	4.969790
1.28510	2.612850	4.991998
1.29195	2.634122	5.014049
1.29880	2.655424	5.035944
1.30565	2.676753	5.057684
1.31251	2.698109	5.079272
1.31936	2.719491	5.100708
1.32622	2.740897	5.121995
1.33308	2.762326	5.143133
1.33994	2.783777	5.164125
1.34680	2.805250	5.184971
1.35367	2.826742	5.205673
1.36054	2.848253	5.226232
1.36741	2.869782	5.246651
1.37428	2.891327	5.266929
1.38115	2.912889	5.287070
1.38803	2.934465	5.307073
1.39490	2.956056	5.326940
1.40178	2.977660	5.346673
1.40866	2.999276	5.366273
1.41554	3.020903	5.385741
1.42243	3.042542	5.405079
1.42931	3.064190	5.424287
1.43620	3.085848	5.443368
1.44309	3.107514	5.462321
1.44998	3.129187	5.481149
1.45688	3.150868	5.499852
1.46377	3.172555	5.518433
1.47067	3.194248	5.536891
1.47757	3.215945	5.555228
1.48447	3.237647	5.573446
1.49137	3.259353	5.591545
1.49828	3.281062	5.609526
1.50518	3.302774	5.627391
1.51209	3.324488	5.645141
1.51900	3.346203	5.662777
1.52591	3.367920	5.680299
1.53283	3.389636	5.697709
1.53974	3.411353	5.715009
1.54666	3.433069	5.732198
1.55358	3.454784	5.749278
1.56050	3.476498	5.766251
1.56742	3.498210	5.783116
1.57435	3.519920	5.799875
1.58128	3.541627	5.816529
1.58820	3.563330	5.833080
1.59514	3.585031	5.849527
1.60207	3.606727	5.865872
1.60900	3.628419	5.882115
1.61594	3.650106	5.898259
1.62288	3.671789	5.914303
1.62982	3.693466	5.930248
1.63676	3.715137	5.946096
1.64370	3.736802	5.961847
1.65065	3.758461	5.977502
1.65759	3.780113	5.993062
1.66454	3.801759	6.008528
1.67150	3.823397	6.023901
1.67845	3.845028	6.039181
1.68540	3.866651	6.054370
