Material: inorganic / TiN / Shkondin-900
Optical constants. E. Shkondin, T. Repän, O. Takayama, and A. V. Lavrinenko. High aspect ratio titanium nitride trench structures as plasmonic biosensor, Opt. Mater. Express 7, 4171-4182 (2017) (Numerical data kindly provided by Osamu Takayama)
Comments: 105 nm thick titanium nitride (TiN) film on Si substrate annealed at 900 °C.
Specs: {"n_absolute": true, "wavelength_vacuum": true, "film_thickness": "105 nm", "substrate": "Si", "annealing_temperature": "900 °C"}
wavelength (um)	n	k
0.21073	1.742527	1.483874
0.21389	1.786978	1.483846
0.21705	1.829328	1.479410
0.22021	1.869254	1.471104
0.22337	1.906507	1.459448
0.22652	1.940908	1.444940
0.22968	1.972345	1.428052
0.23284	2.000760	1.409232
0.23601	2.026145	1.388889
0.23917	2.048534	1.367404
0.24233	2.067995	1.345121
0.24549	2.084622	1.322347
0.24865	2.098533	1.299356
0.25181	2.109858	1.276389
0.25497	2.118740	1.253654
0.25814	2.125326	1.231330
0.26130	2.129766	1.209572
0.26446	2.132211	1.188509
0.26763	2.132809	1.168249
0.27079	2.131702	1.148883
0.27395	2.129032	1.130485
0.27712	2.124932	1.113117
0.28028	2.119530	1.096826
0.28345	2.112950	1.081655
0.28661	2.105308	1.067634
0.28978	2.096719	1.054789
0.29294	2.087290	1.043141
0.29611	2.077127	1.032704
0.29927	2.066333	1.023493
0.30244	2.055010	1.015514
0.30561	2.043259	1.008774
0.30877	2.031181	1.003276
0.31194	2.018879	0.999018
0.31511	2.006459	0.995995
0.31828	1.994030	0.994199
0.32144	1.981705	0.993612
0.32461	1.969603	0.994211
0.32778	1.957846	0.995963
0.33095	1.946565	0.998821
0.33412	1.935893	1.002727
0.33728	1.925969	1.007602
0.34045	1.916933	1.013347
0.34362	1.908926	1.019839
0.34679	1.902086	1.026927
0.34996	1.896543	1.034429
0.35313	1.892410	1.042125
0.35630	1.889782	1.049763
0.35947	1.888720	1.057046
0.36264	1.889243	1.063641
0.36581	1.891313	1.069175
0.36898	1.894820	1.073240
0.37215	1.899558	1.075401
0.37532	1.905203	1.075211
0.37849	1.911279	1.072235
0.38166	1.917123	1.066096
0.38483	1.921844	1.056551
0.38800	1.924305	1.043629
0.39117	1.923162	1.027860
0.39434	1.917113	1.010584
0.39752	1.905570	0.994207
0.40069	1.889935	0.981765
0.40386	1.874560	0.974537
0.40703	1.863834	0.968263
0.41020	1.854249	0.955742
0.41337	1.836425	0.939742
0.41654	1.812598	0.930538
0.41972	1.792159	0.926337
0.42289	1.773916	0.919853
0.42606	1.752791	0.911395
0.42923	1.728140	0.904171
0.43240	1.701539	0.899371
0.43558	1.674021	0.896644
0.43875	1.645739	0.895469
0.44192	1.616457	0.895686
0.44509	1.585948	0.897480
0.44827	1.554158	0.901228
0.45144	1.521242	0.907353
0.45461	1.487539	0.916224
0.45778	1.453519	0.928093
0.46096	1.419726	0.943065
0.46413	1.386719	0.961077
0.46730	1.355018	0.981921
0.47047	1.325057	1.005260
0.47365	1.297154	1.030675
0.47682	1.271500	1.057706
0.47999	1.248161	1.085896
0.48316	1.227099	1.114822
0.48634	1.208193	1.144121
0.48951	1.191269	1.173500
0.49268	1.176125	1.202736
0.49585	1.162549	1.231671
0.49903	1.150336	1.260203
0.50220	1.139296	1.288277
0.50537	1.129263	1.315867
0.50854	1.120092	1.342977
0.51172	1.111661	1.369621
0.51489	1.103871	1.395828
0.51806	1.096638	1.421630
0.52123	1.089897	1.447059
0.52440	1.083595	1.472150
0.52758	1.077689	1.496934
0.53075	1.072147	1.521438
0.53392	1.066941	1.545690
0.53709	1.062050	1.569710
0.54026	1.057457	1.593519
0.54344	1.053146	1.617132
0.54661	1.049106	1.640564
0.54978	1.045325	1.663827
0.55295	1.041795	1.686931
0.55612	1.038508	1.709883
0.55929	1.035455	1.732692
0.56246	1.032630	1.755362
0.56563	1.030026	1.777899
0.56881	1.027635	1.800308
0.57198	1.025453	1.822592
0.57515	1.023473	1.844753
0.57832	1.021689	1.866796
0.58149	1.020095	1.888721
0.58466	1.018686	1.910532
0.58783	1.017456	1.932231
0.59100	1.016400	1.953820
0.59417	1.015514	1.975299
0.59734	1.014791	1.996672
0.60051	1.014228	2.017939
0.60368	1.013819	2.039101
0.60685	1.013560	2.060163
0.61001	1.013447	2.081122
0.61318	1.013475	2.101982
0.61635	1.013641	2.122745
0.61952	1.013940	2.143410
0.62269	1.014368	2.163980
0.62586	1.014922	2.184457
0.62902	1.015599	2.204840
0.63219	1.016395	2.225132
0.63536	1.017306	2.245334
0.63853	1.018330	2.265448
0.64169	1.019464	2.285473
0.64486	1.020704	2.305413
0.64803	1.022048	2.325267
0.65119	1.023493	2.345037
0.65436	1.025037	2.364724
0.65752	1.026676	2.384330
0.66069	1.028409	2.403856
0.66386	1.030234	2.423301
0.66702	1.032148	2.442669
0.67019	1.034148	2.461959
0.67335	1.036234	2.481173
0.67652	1.038402	2.500312
0.67968	1.040651	2.519377
0.68284	1.042980	2.538368
0.68601	1.045385	2.557287
0.68917	1.047867	2.576135
0.69233	1.050422	2.594912
0.69550	1.053050	2.613620
0.69866	1.055749	2.632259
0.70182	1.058517	2.650830
0.70498	1.061352	2.669334
0.70814	1.064255	2.687772
0.71131	1.067222	2.706145
0.71447	1.070254	2.724453
0.71763	1.073348	2.742697
0.72079	1.076504	2.760878
0.72395	1.079720	2.778997
0.72711	1.082994	2.797054
0.73027	1.086327	2.815050
0.73343	1.089717	2.832986
0.73658	1.093163	2.850861
0.73974	1.096664	2.868678
0.74290	1.100219	2.886437
0.74606	1.103826	2.904137
0.74922	1.107486	2.921780
0.75237	1.111197	2.939367
0.75553	1.114959	2.956898
0.75869	1.118769	2.974373
0.76184	1.122629	2.991792
0.76500	1.126536	3.009158
0.76815	1.130491	3.026470
0.77131	1.134492	3.043727
0.77446	1.138538	3.060932
0.77762	1.142630	3.078085
0.78077	1.146766	3.095185
0.78392	1.150945	3.112234
0.78708	1.155167	3.129232
0.79023	1.159431	3.146179
0.79338	1.163737	3.163076
0.79653	1.168085	3.179922
0.79968	1.172472	3.196719
0.80283	1.176900	3.213467
0.80598	1.181366	3.230167
0.80913	1.185872	3.246818
0.81228	1.190415	3.263421
0.81543	1.194997	3.279976
0.81858	1.199615	3.296484
0.82173	1.204270	3.312945
0.82488	1.208961	3.329360
0.82803	1.213688	3.345728
0.83117	1.218450	3.362050
0.83432	1.223247	3.378327
0.83746	1.228078	3.394558
0.84061	1.232942	3.410744
0.84375	1.237840	3.426885
0.84690	1.242771	3.442982
0.85004	1.247735	3.459035
0.85319	1.252730	3.475044
0.85633	1.257758	3.491009
0.85947	1.262816	3.506930
0.86261	1.267906	3.522809
0.86576	1.273025	3.538644
0.86890	1.278176	3.554437
0.87204	1.283355	3.570188
0.87518	1.288565	3.585896
0.87832	1.293803	3.601562
0.88146	1.299070	3.617187
0.88460	1.304365	3.632770
0.88773	1.309688	3.648312
0.89087	1.315039	3.663813
0.89401	1.320417	3.679273
0.89714	1.325822	3.694692
0.90028	1.331253	3.710071
0.90342	1.336711	3.725409
0.90655	1.342195	3.740708
0.90968	1.347705	3.755966
0.91282	1.353240	3.771185
0.91595	1.358801	3.786365
0.91908	1.364386	3.801505
0.92222	1.369995	3.816606
0.92535	1.375629	3.831668
0.92848	1.381287	3.846691
0.93161	1.386968	3.861675
0.93474	1.392673	3.876621
0.93787	1.398401	3.891528
0.94099	1.404152	3.906398
0.94412	1.409925	3.921230
0.94725	1.415721	3.936023
0.95038	1.421538	3.950780
0.95350	1.427378	3.965498
0.95663	1.433239	3.980179
0.95975	1.439121	3.994823
0.96288	1.445024	4.009430
0.96600	1.450949	4.024000
0.96912	1.456893	4.038532
0.97225	1.462858	4.053029
0.97537	1.468844	4.067489
0.97849	1.474848	4.081912
0.98161	1.480873	4.096299
0.98473	1.486917	4.110650
0.98785	1.492980	4.124965
0.99097	1.499062	4.139244
0.99408	1.505163	4.153487
0.99720	1.511282	4.167695
1.01269	1.541975	4.237814
1.01946	1.555544	4.268232
1.02624	1.569203	4.298507
1.03302	1.582951	4.328643
1.03979	1.596784	4.358640
1.04658	1.610702	4.388498
1.05336	1.624703	4.418219
1.06014	1.638785	4.447803
1.06693	1.652948	4.477252
1.07372	1.667188	4.506566
1.08051	1.681504	4.535747
1.08730	1.695895	4.564794
1.09410	1.710360	4.593709
1.10089	1.724897	4.622493
1.10769	1.739504	4.651146
1.11449	1.754180	4.679669
1.12129	1.768924	4.708064
1.12810	1.783734	4.736330
1.13490	1.798609	4.764468
1.14171	1.813547	4.792480
1.14852	1.828547	4.820365
1.15533	1.843609	4.848125
1.16214	1.858729	4.875761
1.16896	1.873908	4.903273
1.17578	1.889144	4.930661
1.18259	1.904436	4.957927
1.18942	1.919782	4.985071
1.19624	1.935182	5.012093
1.20306	1.950633	5.038996
1.20989	1.966136	5.065778
1.21672	1.981689	5.092441
1.22355	1.997290	5.118986
1.23038	2.012939	5.145413
1.23721	2.028635	5.171722
1.24405	2.044376	5.197915
1.25088	2.060161	5.223993
1.25772	2.075990	5.249955
1.26456	2.091861	5.275802
1.27141	2.107774	5.301535
1.27825	2.123726	5.327155
1.28510	2.139719	5.352662
1.29195	2.155749	5.378057
1.29880	2.171817	5.403341
1.30565	2.187921	5.428514
1.31251	2.204061	5.453576
1.31936	2.220235	5.478529
1.32622	2.236443	5.503373
1.33308	2.252684	5.528108
1.33994	2.268957	5.552736
1.34680	2.285261	5.577256
1.35367	2.301596	5.601670
1.36054	2.317959	5.625978
1.36741	2.334351	5.650180
1.37428	2.350772	5.674277
1.38115	2.367219	5.698271
1.38803	2.383692	5.722160
1.39490	2.400190	5.745947
1.40178	2.416714	5.769631
1.40866	2.433261	5.793213
1.41554	2.449831	5.816694
1.42243	2.466424	5.840075
1.42931	2.483038	5.863355
1.43620	2.499673	5.886535
1.44309	2.516329	5.909617
1.44998	2.533004	5.932600
1.45688	2.549698	5.955485
1.46377	2.566411	5.978274
1.47067	2.583141	6.000965
1.47757	2.599888	6.023561
1.48447	2.616651	6.046060
1.49137	2.633430	6.068465
1.49828	2.650224	6.090775
1.50518	2.667033	6.112992
1.51209	2.683856	6.135115
1.51900	2.700691	6.157145
1.52591	2.717540	6.179084
1.53283	2.734401	6.200930
1.53974	2.751273	6.222685
1.54666	2.768156	6.244350
1.55358	2.785050	6.265925
1.56050	2.801954	6.287410
1.56742	2.818867	6.308806
1.57435	2.835789	6.330114
1.58128	2.852720	6.351334
1.58820	2.869658	6.372466
1.59514	2.886604	6.393512
1.60207	2.903557	6.414471
1.60900	2.920516	6.435345
1.61594	2.937481	6.456134
1.62288	2.954452	6.476837
1.62982	2.971429	6.497457
1.63676	2.988409	6.517993
1.64370	3.005394	6.538445
1.65065	3.022383	6.558815
1.65759	3.039374	6.579103
1.66454	3.056369	6.599309
1.67150	3.073367	6.619434
1.67845	3.090366	6.639478
1.68540	3.107368	6.659443
