Material: organic / C3H8O - propanol / Myers
Optical constants. T. L. Myers, R. G. Tonkyn, T. O. Danby, M. S. Taubman, B. E. Bernacki, J. C. Birnbaum, S. W. Sharpe, T. J. Johnson. Accurate measurement of the optical constants n and k for a series of 57 inorganic and organic liquids for optical modeling and detection, Appl. Spectrosc. 72, 535-550 (2018) (see Supplemental Material for numerical data)
Comments: Isopropanol. 26 Â°C.
Specs: {"n_absolute": true, "wavelength_vacuum": true, "temperature": "26 Â°C"}
wavelength (um)	n	k
1.28246E+00	1.36228E+00	2.35900E-05
1.28556E+00	1.36229E+00	2.34776E-05
1.28868E+00	1.36228E+00	2.33282E-05
1.29181E+00	1.36228E+00	2.29249E-05
1.29495E+00	1.36227E+00	2.24695E-05
1.29812E+00	1.36226E+00	2.22274E-05
1.30129E+00	1.36225E+00	2.19664E-05
1.30448E+00	1.36224E+00	2.17278E-05
1.30769E+00	1.36223E+00	2.14909E-05
1.31091E+00	1.36222E+00	2.11739E-05
1.31415E+00	1.36221E+00	2.07183E-05
1.31741E+00	1.36220E+00	2.02887E-05
1.32068E+00	1.36219E+00	2.06930E-05
1.32397E+00	1.36218E+00	2.19570E-05
1.32727E+00	1.36217E+00	2.31808E-05
1.33059E+00	1.36216E+00	2.38687E-05
1.33393E+00	1.36215E+00	2.43210E-05
1.33728E+00	1.36214E+00	2.47836E-05
1.34066E+00	1.36213E+00	2.53500E-05
1.34404E+00	1.36212E+00	2.61318E-05
1.34745E+00	1.36210E+00	2.75920E-05
1.35087E+00	1.36209E+00	3.03367E-05
1.35431E+00	1.36208E+00	3.39578E-05
1.35777E+00	1.36207E+00	3.65463E-05
1.36124E+00	1.36206E+00	3.71720E-05
1.36474E+00	1.36205E+00	3.68223E-05
1.36825E+00	1.36204E+00	3.59104E-05
1.37178E+00	1.36203E+00	3.53881E-05
1.37533E+00	1.36202E+00	3.53365E-05
1.37889E+00	1.36201E+00	3.45257E-05
1.38248E+00	1.36200E+00	3.30966E-05
1.38608E+00	1.36199E+00	3.22815E-05
1.38970E+00	1.36197E+00	3.18125E-05
1.39334E+00	1.36196E+00	3.08505E-05
1.39700E+00	1.36195E+00	2.95110E-05
1.40068E+00	1.36193E+00	2.87386E-05
1.40438E+00	1.36192E+00	3.06290E-05
1.40810E+00	1.36190E+00	3.52210E-05
1.41184E+00	1.36189E+00	3.74006E-05
1.41559E+00	1.36188E+00	3.58017E-05
1.41937E+00	1.36187E+00	3.33016E-05
1.42317E+00	1.36185E+00	3.20691E-05
1.42699E+00	1.36184E+00	3.27930E-05
1.43083E+00	1.36182E+00	3.44689E-05
1.43469E+00	1.36181E+00	3.60770E-05
1.43857E+00	1.36179E+00	3.72712E-05
1.44247E+00	1.36178E+00	3.86047E-05
1.44639E+00	1.36176E+00	4.03002E-05
1.45034E+00	1.36175E+00	4.22572E-05
1.45430E+00	1.36173E+00	4.42624E-05
1.45829E+00	1.36172E+00	4.59667E-05
1.46230E+00	1.36170E+00	4.75779E-05
1.46633E+00	1.36169E+00	4.91559E-05
1.47039E+00	1.36167E+00	5.09096E-05
1.47446E+00	1.36166E+00	5.27079E-05
1.47856E+00	1.36165E+00	5.44674E-05
1.48269E+00	1.36163E+00	5.61603E-05
1.48683E+00	1.36162E+00	5.77005E-05
1.49100E+00	1.36160E+00	5.90243E-05
1.49519E+00	1.36159E+00	5.97680E-05
1.49941E+00	1.36157E+00	6.01017E-05
1.50365E+00	1.36156E+00	6.01761E-05
1.50791E+00	1.36154E+00	6.03572E-05
1.51220E+00	1.36152E+00	6.06281E-05
1.51651E+00	1.36151E+00	6.07293E-05
1.52085E+00	1.36149E+00	6.06899E-05
1.52521E+00	1.36147E+00	6.05760E-05
1.52959E+00	1.36146E+00	6.07384E-05
1.53401E+00	1.36144E+00	6.10141E-05
1.53844E+00	1.36142E+00	6.14186E-05
1.54291E+00	1.36140E+00	6.19810E-05
1.54740E+00	1.36138E+00	6.27887E-05
1.55191E+00	1.36136E+00	6.40232E-05
1.55645E+00	1.36135E+00	6.54348E-05
1.56102E+00	1.36133E+00	6.70002E-05
1.56562E+00	1.36131E+00	6.85165E-05
1.57024E+00	1.36129E+00	6.99760E-05
1.57489E+00	1.36127E+00	7.10934E-05
1.57957E+00	1.36125E+00	7.16921E-05
1.58427E+00	1.36124E+00	7.16742E-05
1.58901E+00	1.36122E+00	7.07126E-05
1.59377E+00	1.36120E+00	6.91224E-05
1.59856E+00	1.36118E+00	6.69449E-05
1.60338E+00	1.36116E+00	6.45239E-05
1.60823E+00	1.36114E+00	6.20723E-05
1.61310E+00	1.36112E+00	5.97570E-05
1.61801E+00	1.36109E+00	5.75701E-05
1.62295E+00	1.36107E+00	5.52810E-05
1.62792E+00	1.36104E+00	5.28319E-05
1.63292E+00	1.36102E+00	5.02426E-05
1.63794E+00	1.36099E+00	4.80912E-05
1.64300E+00	1.36096E+00	4.62926E-05
1.64810E+00	1.36094E+00	4.48584E-05
1.65322E+00	1.36091E+00	4.39142E-05
1.65837E+00	1.36087E+00	4.36010E-05
1.66356E+00	1.36084E+00	4.45204E-05
1.66878E+00	1.36080E+00	4.79174E-05
1.67403E+00	1.36076E+00	5.52920E-05
1.67932E+00	1.36071E+00	8.06590E-05
1.68464E+00	1.36070E+00	1.45132E-04
1.68999E+00	1.36072E+00	1.28087E-04
1.69538E+00	1.36070E+00	1.43665E-04
1.70080E+00	1.36071E+00	1.27853E-04
1.70626E+00	1.36068E+00	1.01140E-04
1.71175E+00	1.36065E+00	9.82010E-05
1.71728E+00	1.36061E+00	9.13630E-05
1.72284E+00	1.36058E+00	9.10530E-05
1.72844E+00	1.36054E+00	1.04635E-04
1.73408E+00	1.36053E+00	1.13119E-04
1.73975E+00	1.36052E+00	1.09738E-04
1.74546E+00	1.36049E+00	8.36420E-05
1.75121E+00	1.36046E+00	7.66380E-05
1.75699E+00	1.36041E+00	6.98660E-05
1.76282E+00	1.36038E+00	8.48450E-05
1.76868E+00	1.36035E+00	8.67980E-05
1.77458E+00	1.36033E+00	6.82790E-05
1.78052E+00	1.36029E+00	6.10500E-05
1.78650E+00	1.36025E+00	5.36244E-05
1.79252E+00	1.36020E+00	5.38227E-05
1.79859E+00	1.36016E+00	5.54914E-05
1.80469E+00	1.36012E+00	5.94812E-05
1.81083E+00	1.36008E+00	6.40739E-05
1.81702E+00	1.36005E+00	6.67777E-05
1.82325E+00	1.36002E+00	6.60949E-05
1.82952E+00	1.35998E+00	6.20878E-05
1.83584E+00	1.35994E+00	5.72250E-05
1.84220E+00	1.35990E+00	4.89815E-05
1.84860E+00	1.35985E+00	4.32544E-05
1.85505E+00	1.35980E+00	4.06766E-05
1.86154E+00	1.35976E+00	4.03870E-05
1.86808E+00	1.35971E+00	4.09198E-05
1.87466E+00	1.35966E+00	4.01141E-05
1.88130E+00	1.35961E+00	4.07182E-05
1.88797E+00	1.35956E+00	4.15674E-05
1.89470E+00	1.35951E+00	4.43750E-05
1.90147E+00	1.35946E+00	4.76845E-05
1.90830E+00	1.35941E+00	5.05880E-05
1.91517E+00	1.35936E+00	5.22773E-05
1.92209E+00	1.35931E+00	5.05214E-05
1.92906E+00	1.35926E+00	4.91729E-05
1.93609E+00	1.35920E+00	4.69155E-05
1.94316E+00	1.35915E+00	4.53792E-05
1.95029E+00	1.35909E+00	4.38113E-05
1.95746E+00	1.35902E+00	4.39491E-05
1.96469E+00	1.35896E+00	4.57714E-05
1.97198E+00	1.35890E+00	4.86577E-05
1.97932E+00	1.35883E+00	5.36825E-05
1.98671E+00	1.35876E+00	5.62709E-05
1.99416E+00	1.35870E+00	6.06498E-05
2.00167E+00	1.35863E+00	6.61028E-05
2.00923E+00	1.35855E+00	7.16796E-05
2.01685E+00	1.35848E+00	7.80673E-05
2.02453E+00	1.35840E+00	8.69932E-05
2.03226E+00	1.35832E+00	1.01886E-04
2.04006E+00	1.35824E+00	1.20151E-04
2.04792E+00	1.35817E+00	1.44915E-04
2.05583E+00	1.35809E+00	1.71747E-04
2.06381E+00	1.35803E+00	1.99179E-04
2.07185E+00	1.35797E+00	2.22440E-04
2.07995E+00	1.35792E+00	2.37697E-04
2.08812E+00	1.35786E+00	2.45443E-04
2.09635E+00	1.35780E+00	2.43404E-04
2.10465E+00	1.35774E+00	2.37987E-04
2.11301E+00	1.35767E+00	2.28379E-04
2.12144E+00	1.35759E+00	2.17780E-04
2.12993E+00	1.35751E+00	2.04090E-04
2.13850E+00	1.35742E+00	1.89421E-04
2.14713E+00	1.35732E+00	1.77597E-04
2.15583E+00	1.35721E+00	1.66190E-04
2.16461E+00	1.35710E+00	1.59730E-04
2.17346E+00	1.35698E+00	1.55220E-04
2.18237E+00	1.35686E+00	1.53486E-04
2.19137E+00	1.35674E+00	1.51507E-04
2.20043E+00	1.35661E+00	1.47623E-04
2.20958E+00	1.35647E+00	1.45708E-04
2.21879E+00	1.35631E+00	1.46092E-04
2.22809E+00	1.35614E+00	1.54490E-04
2.23746E+00	1.35595E+00	1.70406E-04
2.24692E+00	1.35572E+00	2.41567E-04
2.25645E+00	1.35549E+00	4.03935E-04
2.26606E+00	1.35548E+00	6.94440E-04
2.27576E+00	1.35552E+00	5.85546E-04
2.28554E+00	1.35536E+00	5.78816E-04
2.29541E+00	1.35507E+00	6.89785E-04
2.30536E+00	1.35510E+00	1.03346E-03
2.31539E+00	1.35528E+00	9.52827E-04
2.32552E+00	1.35529E+00	8.71918E-04
2.33573E+00	1.35517E+00	6.41166E-04
2.34603E+00	1.35497E+00	5.70088E-04
2.35643E+00	1.35478E+00	4.85401E-04
2.36692E+00	1.35456E+00	4.22217E-04
2.37750E+00	1.35430E+00	3.56302E-04
2.38817E+00	1.35401E+00	3.43831E-04
2.39895E+00	1.35369E+00	4.03881E-04
2.40982E+00	1.35342E+00	5.11980E-04
2.42078E+00	1.35336E+00	6.55941E-04
2.43185E+00	1.35310E+00	5.34916E-04
2.44302E+00	1.35284E+00	6.71549E-04
2.45430E+00	1.35267E+00	6.94473E-04
2.46568E+00	1.35248E+00	7.49535E-04
2.47716E+00	1.35239E+00	7.00866E-04
2.48875E+00	1.35213E+00	5.33079E-04
2.50046E+00	1.35179E+00	4.18702E-04
2.51227E+00	1.35141E+00	3.24176E-04
2.52419E+00	1.35097E+00	2.78115E-04
2.53623E+00	1.35050E+00	2.67658E-04
2.54838E+00	1.35010E+00	3.30333E-04
2.56065E+00	1.34964E+00	2.93190E-04
2.57304E+00	1.34917E+00	2.86538E-04
2.58555E+00	1.34863E+00	3.05900E-04
2.59818E+00	1.34810E+00	3.03820E-04
2.61094E+00	1.34753E+00	3.17728E-04
2.62382E+00	1.34688E+00	3.18173E-04
2.63683E+00	1.34625E+00	3.67790E-04
2.64997E+00	1.34554E+00	2.70226E-04
2.66324E+00	1.34466E+00	2.20854E-04
2.67664E+00	1.34371E+00	2.21813E-04
2.69018E+00	1.34262E+00	2.23364E-04
2.70386E+00	1.34144E+00	2.56791E-04
2.71767E+00	1.34006E+00	2.92712E-04
2.73163E+00	1.33840E+00	3.49267E-04
2.74573E+00	1.33627E+00	7.77057E-04
2.75998E+00	1.33445E+00	1.50443E-03
2.77438E+00	1.33212E+00	1.99566E-03
2.78893E+00	1.32924E+00	2.96522E-03
2.80363E+00	1.32619E+00	4.54327E-03
2.81849E+00	1.32287E+00	6.93606E-03
2.83351E+00	1.31932E+00	1.01861E-02
2.84869E+00	1.31588E+00	1.45716E-02
2.86403E+00	1.31282E+00	2.02468E-02
2.87953E+00	1.31071E+00	2.73546E-02
2.89521E+00	1.31027E+00	3.55597E-02
2.91106E+00	1.31154E+00	4.39981E-02
2.92708E+00	1.31437E+00	5.30418E-02
2.94328E+00	1.31964E+00	6.25186E-02
2.95966E+00	1.32843E+00	7.11204E-02
2.97622E+00	1.34019E+00	7.69278E-02
2.99297E+00	1.35338E+00	7.85026E-02
3.00991E+00	1.36544E+00	7.59808E-02
3.02704E+00	1.37534E+00	7.10193E-02
3.04437E+00	1.38338E+00	6.46079E-02
3.06189E+00	1.38936E+00	5.71084E-02
3.07963E+00	1.39322E+00	4.90237E-02
3.09756E+00	1.39500E+00	4.08851E-02
3.11571E+00	1.39471E+00	3.33096E-02
3.13407E+00	1.39306E+00	2.68919E-02
3.15265E+00	1.39048E+00	2.14114E-02
3.17145E+00	1.38715E+00	1.70790E-02
3.19047E+00	1.38349E+00	1.38055E-02
3.20973E+00	1.37960E+00	1.12810E-02
3.22922E+00	1.37553E+00	9.44397E-03
3.24895E+00	1.37104E+00	8.09625E-03
3.26892E+00	1.36591E+00	7.33447E-03
3.28913E+00	1.35944E+00	7.18443E-03
3.30960E+00	1.35028E+00	8.16069E-03
3.33033E+00	1.33375E+00	1.24310E-02
3.35131E+00	1.29157E+00	5.15359E-02
3.37256E+00	1.43112E+00	1.01818E-01
3.39409E+00	1.39143E+00	3.07709E-02
3.41589E+00	1.38975E+00	4.04423E-02
3.43797E+00	1.39068E+00	3.32861E-02
3.46034E+00	1.38970E+00	3.68404E-02
3.48300E+00	1.40184E+00	3.14520E-02
3.50596E+00	1.40284E+00	2.08937E-02
3.52923E+00	1.39781E+00	1.28789E-02
3.55280E+00	1.39354E+00	1.04350E-02
3.57670E+00	1.39060E+00	8.45867E-03
3.60092E+00	1.38836E+00	7.48716E-03
3.62546E+00	1.38621E+00	6.32011E-03
3.65035E+00	1.38387E+00	6.08594E-03
3.67558E+00	1.38288E+00	6.93534E-03
3.70115E+00	1.38261E+00	6.28728E-03
3.72709E+00	1.38144E+00	4.79008E-03
3.75340E+00	1.37955E+00	6.44899E-03
3.78007E+00	1.38130E+00	5.35654E-03
3.80713E+00	1.37970E+00	4.05379E-03
3.83458E+00	1.37859E+00	4.13474E-03
3.86243E+00	1.37811E+00	4.19191E-03
3.89069E+00	1.37812E+00	3.91158E-03
3.91936E+00	1.37719E+00	2.89304E-03
3.94846E+00	1.37623E+00	3.21455E-03
3.97800E+00	1.37627E+00	3.23608E-03
4.00797E+00	1.37591E+00	2.43019E-03
4.03841E+00	1.37513E+00	2.22240E-03
4.06931E+00	1.37478E+00	1.76726E-03
4.10069E+00	1.37365E+00	1.47875E-03
4.13255E+00	1.37299E+00	1.97281E-03
4.16491E+00	1.37311E+00	2.05682E-03
4.19779E+00	1.37291E+00	1.55249E-03
4.23118E+00	1.37234E+00	1.06721E-03
4.26512E+00	1.37158E+00	8.08027E-04
4.29960E+00	1.37081E+00	9.16033E-04
4.33464E+00	1.37047E+00	9.73302E-04
4.37026E+00	1.37007E+00	9.97423E-04
4.40647E+00	1.36966E+00	8.53984E-04
4.44329E+00	1.36922E+00	7.69175E-04
4.48072E+00	1.36858E+00	7.35290E-04
4.51879E+00	1.36814E+00	9.66650E-04
4.55752E+00	1.36806E+00	1.29092E-03
4.59691E+00	1.36795E+00	7.67164E-04
4.63699E+00	1.36727E+00	5.53595E-04
4.67778E+00	1.36664E+00	4.98353E-04
4.71929E+00	1.36611E+00	6.37592E-04
4.76154E+00	1.36567E+00	6.72610E-04
4.80455E+00	1.36527E+00	9.36197E-04
4.84835E+00	1.36505E+00	8.91244E-04
4.89296E+00	1.36474E+00	6.92926E-04
4.93840E+00	1.36417E+00	5.59992E-04
4.98468E+00	1.36351E+00	5.29418E-04
5.03184E+00	1.36287E+00	6.86735E-04
5.07991E+00	1.36251E+00	8.21277E-04
5.12890E+00	1.36193E+00	8.09837E-04
5.17884E+00	1.36123E+00	9.71816E-04
5.22977E+00	1.36048E+00	1.61599E-03
5.28171E+00	1.36120E+00	1.70909E-03
5.33469E+00	1.36050E+00	1.17591E-03
5.38874E+00	1.35979E+00	1.01923E-03
5.44390E+00	1.35898E+00	1.08408E-03
5.50020E+00	1.35818E+00	1.06372E-03
5.55768E+00	1.35725E+00	1.27087E-03
5.61637E+00	1.35585E+00	1.79960E-03
5.67631E+00	1.35705E+00	2.93143E-03
5.73755E+00	1.35618E+00	1.93700E-03
5.80013E+00	1.35523E+00	1.76485E-03
5.86408E+00	1.35423E+00	1.66484E-03
5.92946E+00	1.35293E+00	1.67953E-03
5.99631E+00	1.35178E+00	1.82743E-03
6.06469E+00	1.35039E+00	1.91222E-03
6.13465E+00	1.34892E+00	2.04304E-03
6.20624E+00	1.34708E+00	2.22361E-03
6.27952E+00	1.34499E+00	2.52428E-03
6.35455E+00	1.34250E+00	2.92794E-03
6.43139E+00	1.33942E+00	3.66227E-03
6.51012E+00	1.33562E+00	4.79217E-03
6.59080E+00	1.33036E+00	6.54272E-03
6.67350E+00	1.32259E+00	1.11102E-02
6.75831E+00	1.31034E+00	2.49715E-02
6.84530E+00	1.34389E+00	4.45723E-02
6.93455E+00	1.33522E+00	2.52359E-02
7.02617E+00	1.32736E+00	3.69226E-02
7.12023E+00	1.33595E+00	4.53228E-02
7.21686E+00	1.29996E+00	6.41885E-02
7.31613E+00	1.38439E+00	7.99461E-02
7.41818E+00	1.35639E+00	3.22990E-02
7.52312E+00	1.35495E+00	3.77428E-02
7.63107E+00	1.36723E+00	6.41463E-02
7.74216E+00	1.39277E+00	4.44342E-02
7.85653E+00	1.38421E+00	2.08895E-02
7.97433E+00	1.37208E+00	1.45494E-02
8.09572E+00	1.36050E+00	1.10290E-02
8.22086E+00	1.34947E+00	1.00298E-02
8.34993E+00	1.32978E+00	1.03253E-02
8.48312E+00	1.29113E+00	2.12669E-02
8.62063E+00	1.33763E+00	1.47103E-01
8.76267E+00	1.33149E+00	8.52364E-02
8.90946E+00	1.42940E+00	1.15568E-01
9.06126E+00	1.45281E+00	9.53236E-02
9.21832E+00	1.44488E+00	2.59167E-02
9.38092E+00	1.41645E+00	9.88085E-03
9.54937E+00	1.39845E+00	5.56955E-03
9.72397E+00	1.38470E+00	4.65636E-03
9.90507E+00	1.37132E+00	4.67854E-03
1.00931E+01	1.35174E+00	6.21298E-03
1.02883E+01	1.30785E+00	1.68460E-02
1.04913E+01	1.37359E+00	3.38585E-01
1.07024E+01	1.47187E+00	2.90453E-02
1.09222E+01	1.42699E+00	7.65504E-03
1.11512E+01	1.40579E+00	3.27421E-03
1.13900E+01	1.39230E+00	2.92775E-03
1.16393E+01	1.38056E+00	4.28837E-03
1.18997E+01	1.36631E+00	8.04983E-03
1.21721E+01	1.31010E+00	5.78341E-02
1.24572E+01	1.40090E+00	1.59249E-02
1.27560E+01	1.38104E+00	1.73078E-02
1.30694E+01	1.37419E+00	2.24796E-02
1.33987E+01	1.37099E+00	2.85294E-02
1.37450E+01	1.37028E+00	3.52254E-02
1.41097E+01	1.37185E+00	4.19985E-02
1.44942E+01	1.37598E+00	4.83447E-02
1.49003E+01	1.38241E+00	5.32322E-02
1.53298E+01	1.39066E+00	5.56735E-02
1.57848E+01	1.39915E+00	5.47075E-02
1.62676E+01	1.40629E+00	5.10908E-02
1.67809E+01	1.41122E+00	4.57746E-02
1.73276E+01	1.41373E+00	3.99450E-02
1.79112E+01	1.41420E+00	3.46499E-02
1.85354E+01	1.41281E+00	3.02067E-02
1.92048E+01	1.40939E+00	2.72755E-02
1.99242E+01	1.40147E+00	3.07652E-02
2.06997E+01	1.42454E+00	4.15473E-02
2.15380E+01	1.41570E+00	2.56046E-02
2.24471E+01	1.41060E+00	3.02954E-02
2.34363E+01	1.42000E+00	4.98810E-02
2.45167E+01	1.44325E+00	2.78455E-02
