Material: organic / C3H8O - propanol / Wang-70C
Optical constants. C. C. Wang, J. Y. Tan, C. Y. Jing, L. H. Liu. Temperature-dependent optical constants of liquid isopropanol, n-butanol and n-decane, Appl. Opt. 57, 3303-3311 (2018) (Numerical data kindly provided by Chengchao Wang)
Comments: Isopropanol, 70 Â°C.
Specs: {"n_absolute": true, "wavelength_vacuum": true, "temperature": "70.0 Â°C"}
wavelength (um)	n	k
1.660	1.387	2.446E-05
1.679	1.377	6.550E-05
1.699	1.369	8.843E-05
1.719	1.363	7.205E-05
1.740	1.362	7.266E-05
1.759	1.363	5.662E-05
1.778	1.361	3.714E-05
1.798	1.357	2.832E-05
1.818	1.353	3.428E-05
1.839	1.348	2.455E-05
1.860	1.345	1.517E-05
1.879	1.344	1.422E-05
1.898	1.347	1.675E-05
1.917	1.349	2.337E-05
1.938	1.349	1.809E-05
1.958	1.350	1.529E-05
1.979	1.347	2.226E-05
1.997	1.345	2.820E-05
2.019	1.345	4.548E-05
2.038	1.345	7.392E-05
2.058	1.344	1.278E-04
2.077	1.343	1.802E-04
2.097	1.341	1.899E-04
2.118	1.341	1.680E-04
2.139	1.341	1.379E-04
2.157	1.342	1.187E-04
2.179	1.343	1.048E-04
2.197	1.342	1.020E-04
2.220	1.341	1.023E-04
2.239	1.340	1.481E-04
2.258	1.340	3.699E-04
2.278	1.339	5.382E-04
2.298	1.341	6.850E-04
2.319	1.341	8.126E-04
2.340	1.340	5.441E-04
2.357	1.339	4.149E-04
2.378	1.338	3.057E-04
2.396	1.338	3.274E-04
2.418	1.339	4.964E-04
2.437	1.339	5.303E-04
2.460	1.339	6.308E-04
2.478	1.337	5.696E-04
2.498	1.335	3.761E-04
2.517	1.334	2.497E-04
2.537	1.334	2.209E-04
2.557	1.335	2.367E-04
2.577	1.336	2.289E-04
2.598	1.337	2.433E-04
2.619	1.336	2.549E-04
2.640	1.335	2.613E-04
2.656	1.334	1.956E-04
2.678	1.333	1.657E-04
2.695	1.331	1.833E-04
2.717	1.331	2.342E-04
2.735	1.329	3.387E-04
2.758	1.326	8.004E-04
2.776	1.322	1.230E-03
2.800	1.317	7.330E-03
2.818	1.312	1.176E-02
2.836	1.312	1.913E-02
2.855	1.313	2.167E-02
2.874	1.314	3.323E-02
2.900	1.313	4.599E-02
2.919	1.320	5.299E-02
2.939	1.331	5.888E-02
2.959	1.341	5.964E-02
2.980	1.348	5.947E-02
2.994	1.354	6.020E-02
3.014	1.360	5.228E-02
3.036	1.367	4.327E-02
3.057	1.370	3.452E-02
3.079	1.367	2.347E-02
3.094	1.364	2.232E-02
3.116	1.363	2.303E-02
3.139	1.360	1.727E-02
3.154	1.358	1.493E-02
3.177	1.359	7.680E-03
3.193	1.357	4.910E-03
3.216	1.351	4.260E-03
3.232	1.349	4.710E-03
3.257	1.345	6.270E-03
3.273	1.343	7.730E-03
3.298	1.336	1.930E-03
3.315	1.329	6.650E-03
3.332	1.313	1.943E-02
3.358	1.313	8.045E-02
3.376	1.373	7.159E-02
3.393	1.371	3.598E-02
3.411	1.364	3.545E-02
3.438	1.369	2.959E-02
3.457	1.369	2.802E-02
3.475	1.375	3.053E-02
3.494	1.379	2.011E-02
3.513	1.376	1.125E-02
3.532	1.371	1.099E-02
3.551	1.367	8.690E-03
3.571	1.363	6.730E-03
3.591	1.364	4.690E-03
3.611	1.362	6.370E-03
3.631	1.360	5.210E-03
3.651	1.357	5.150E-03
3.672	1.360	5.110E-03
3.693	1.361	5.700E-03
3.714	1.360	4.450E-03
3.736	1.357	4.860E-03
3.757	1.356	5.510E-03
3.779	1.358	4.300E-03
3.801	1.356	3.680E-03
3.824	1.355	3.580E-03
3.846	1.354	3.740E-03
3.869	1.353	3.710E-03
3.893	1.354	3.160E-03
3.916	1.352	2.620E-03
3.940	1.353	2.650E-03
3.964	1.352	2.790E-03
3.988	1.349	2.460E-03
4.013	1.351	2.030E-03
4.038	1.353	1.870E-03
4.063	1.351	1.580E-03
4.089	1.352	1.300E-03
4.115	1.352	1.490E-03
4.141	1.350	1.880E-03
4.168	1.351	1.830E-03
4.195	1.349	1.450E-03
4.222	1.349	1.050E-03
4.250	1.346	7.654E-04
4.278	1.345	7.008E-04
4.306	1.348	8.176E-04
4.335	1.348	8.808E-04
4.364	1.350	8.797E-04
4.394	1.351	8.087E-04
4.424	1.349	7.373E-04
4.454	1.349	6.566E-04
4.485	1.346	6.842E-04
4.516	1.346	8.504E-04
4.548	1.346	1.030E-03
4.580	1.347	8.818E-04
4.613	1.346	5.575E-04
4.646	1.345	4.470E-04
4.680	1.346	4.454E-04
4.714	1.345	5.211E-04
4.748	1.345	5.830E-04
4.783	1.344	6.780E-04
4.819	1.343	8.115E-04
4.855	1.344	7.555E-04
4.891	1.343	6.138E-04
4.929	1.343	4.822E-04
4.966	1.342	4.433E-04
5.005	1.343	4.867E-04
5.044	1.343	6.690E-04
5.083	1.343	7.241E-04
5.123	1.342	7.208E-04
5.164	1.339	8.195E-04
5.206	1.340	1.120E-03
5.248	1.340	1.760E-03
5.291	1.338	1.420E-03
5.334	1.339	1.060E-03
5.379	1.338	9.400E-04
5.424	1.339	9.209E-04
5.469	1.340	9.541E-04
5.516	1.338	1.010E-03
5.563	1.337	1.160E-03
5.611	1.336	1.610E-03
5.660	1.336	2.790E-03
5.710	1.337	2.050E-03
5.761	1.335	1.730E-03
5.813	1.336	1.610E-03
5.865	1.337	1.510E-03
5.919	1.332	1.560E-03
5.973	1.331	1.690E-03
6.029	1.332	1.770E-03
6.086	1.331	1.860E-03
6.143	1.333	1.970E-03
6.202	1.332	2.090E-03
6.262	1.326	2.330E-03
6.323	1.330	2.610E-03
6.385	1.328	3.020E-03
6.449	1.320	3.690E-03
6.514	1.320	4.660E-03
6.580	1.314	5.860E-03
6.647	1.310	7.750E-03
6.716	1.304	1.481E-02
6.787	1.305	3.445E-02
6.858	1.326	3.938E-02
6.932	1.325	2.697E-02
7.007	1.315	3.233E-02
7.083	1.314	3.875E-02
7.161	1.312	4.816E-02
7.241	1.322	8.031E-02
7.323	1.362	5.534E-02
7.407	1.349	3.111E-02
7.493	1.344	3.455E-02
7.580	1.336	4.333E-02
7.670	1.350	5.281E-02
7.762	1.364	4.154E-02
7.856	1.361	2.716E-02
7.952	1.347	2.164E-02
8.051	1.344	1.560E-02
8.152	1.330	1.259E-02
8.256	1.330	6.720E-03
8.363	1.314	1.910E-02
8.472	1.294	2.241E-02
8.584	1.282	9.552E-02
8.700	1.336	9.356E-02
8.818	1.339	1.112E-01
8.939	1.387	9.381E-02
9.065	1.404	9.250E-02
9.193	1.410	5.532E-02
9.325	1.396	3.054E-02
9.462	1.376	1.630E-02
9.602	1.372	1.125E-02
9.746	1.361	1.265E-02
9.895	1.350	1.261E-02
10.04	1.339	5.980E-03
10.20	1.319	9.190E-03
10.37	1.266	5.070E-02
10.53	1.411	1.678E-01
10.71	1.444	4.515E-02
10.89	1.402	1.906E-02
11.07	1.385	8.670E-03
11.27	1.380	6.950E-03
11.47	1.360	6.390E-03
11.67	1.355	6.270E-03
11.89	1.357	2.410E-03
12.11	1.332	2.544E-02
12.34	1.377	4.653E-02
12.58	1.373	7.150E-03
12.83	1.363	9.820E-03
13.09	1.350	1.278E-02
13.36	1.361	1.700E-02
13.64	1.344	3.404E-02
13.93	1.354	2.332E-02
14.24	1.341	3.311E-02
14.56	1.343	3.892E-02
14.89	1.362	1.808E-02
15.25	1.363	4.427E-02
15.61	1.376	3.560E-02
16.00	1.377	4.257E-02
16.40	1.406	4.322E-02
16.83	1.383	1.227E-02
17.28	1.391	3.066E-02
17.75	1.367	1.035E-01
18.25	1.376	5.837E-02
18.78	1.236	1.502E-01
