Material: organic / C3H8O - propanol / Wang-20C
Optical constants. C. C. Wang, J. Y. Tan, C. Y. Jing, L. H. Liu. Temperature-dependent optical constants of liquid isopropanol, n-butanol and n-decane, Appl. Opt. 57, 3303-3311 (2018) (Numerical data kindly provided by Chengchao Wang)
Comments: Isopropanol, 20 Â°C.
Specs: {"n_absolute": true, "wavelength_vacuum": true, "temperature": "20.0 Â°C"}
wavelength (um)	n	k
1.660	1.376	2.383E-05
1.679	1.368	6.517E-05
1.699	1.361	8.825E-05
1.719	1.358	7.149E-05
1.740	1.356	7.266E-05
1.759	1.357	5.685E-05
1.778	1.356	3.640E-05
1.798	1.355	2.860E-05
1.818	1.354	3.473E-05
1.839	1.352	2.562E-05
1.860	1.351	1.663E-05
1.879	1.351	1.533E-05
1.898	1.354	1.782E-05
1.917	1.355	2.494E-05
1.938	1.354	1.894E-05
1.958	1.354	1.622E-05
1.979	1.350	2.302E-05
1.997	1.348	2.915E-05
2.019	1.349	4.602E-05
2.038	1.350	7.511E-05
2.058	1.352	1.293E-04
2.077	1.352	1.826E-04
2.097	1.349	1.920E-04
2.118	1.346	1.694E-04
2.139	1.345	1.384E-04
2.157	1.345	1.192E-04
2.179	1.347	1.066E-04
2.197	1.347	1.031E-04
2.220	1.346	1.040E-04
2.239	1.345	1.490E-04
2.258	1.345	3.715E-04
2.278	1.345	5.399E-04
2.298	1.348	6.868E-04
2.319	1.349	8.152E-04
2.340	1.348	5.463E-04
2.357	1.346	4.170E-04
2.378	1.345	3.077E-04
2.396	1.344	3.290E-04
2.418	1.345	4.983E-04
2.437	1.345	5.317E-04
2.460	1.347	6.330E-04
2.478	1.346	5.724E-04
2.498	1.346	3.792E-04
2.517	1.345	2.520E-04
2.537	1.345	2.239E-04
2.557	1.345	2.388E-04
2.577	1.345	2.315E-04
2.598	1.346	2.453E-04
2.619	1.345	2.567E-04
2.640	1.344	2.641E-04
2.656	1.343	1.984E-04
2.678	1.341	1.675E-04
2.695	1.339	1.852E-04
2.717	1.338	2.363E-04
2.735	1.337	3.410E-04
2.758	1.335	8.031E-04
2.776	1.331	1.230E-03
2.800	1.327	4.910E-03
2.818	1.319	1.158E-02
2.836	1.317	1.332E-02
2.855	1.317	1.504E-02
2.874	1.316	2.409E-02
2.900	1.312	3.725E-02
2.919	1.314	5.527E-02
2.939	1.322	5.931E-02
2.959	1.335	6.599E-02
2.980	1.350	7.336E-02
2.994	1.363	8.004E-02
3.014	1.375	7.855E-02
3.036	1.384	6.983E-02
3.057	1.389	6.150E-02
3.079	1.391	4.718E-02
3.094	1.389	4.477E-02
3.116	1.388	3.537E-02
3.139	1.384	2.886E-02
3.154	1.385	2.538E-02
3.177	1.381	1.628E-02
3.193	1.380	1.516E-02
3.216	1.375	1.216E-02
3.232	1.372	9.350E-03
3.257	1.365	1.085E-02
3.273	1.359	1.062E-02
3.298	1.354	4.290E-03
3.315	1.346	9.080E-03
3.332	1.329	2.199E-02
3.358	1.329	8.571E-02
3.376	1.398	7.589E-02
3.393	1.395	3.989E-02
3.411	1.386	3.802E-02
3.438	1.388	3.396E-02
3.457	1.389	3.358E-02
3.475	1.395	3.298E-02
3.494	1.400	2.225E-02
3.513	1.398	1.678E-02
3.532	1.392	1.187E-02
3.551	1.386	8.470E-03
3.571	1.385	9.240E-03
3.591	1.385	6.640E-03
3.611	1.381	6.370E-03
3.631	1.381	5.220E-03
3.651	1.378	5.160E-03
3.672	1.378	5.120E-03
3.693	1.379	5.710E-03
3.714	1.380	4.460E-03
3.736	1.375	4.860E-03
3.757	1.374	5.510E-03
3.779	1.375	4.310E-03
3.801	1.374	3.690E-03
3.824	1.372	3.580E-03
3.846	1.373	3.750E-03
3.869	1.371	3.720E-03
3.893	1.370	3.160E-03
3.916	1.369	2.630E-03
3.940	1.372	2.650E-03
3.964	1.372	2.790E-03
3.988	1.369	2.460E-03
4.013	1.368	2.040E-03
4.038	1.370	1.880E-03
4.063	1.369	1.590E-03
4.089	1.369	1.310E-03
4.115	1.369	1.500E-03
4.141	1.368	1.890E-03
4.168	1.368	1.830E-03
4.195	1.367	1.450E-03
4.222	1.365	1.060E-03
4.250	1.368	7.734E-04
4.278	1.364	7.082E-04
4.306	1.366	8.243E-04
4.335	1.365	8.873E-04
4.364	1.366	8.861E-04
4.394	1.365	8.147E-04
4.424	1.366	7.436E-04
4.454	1.366	6.632E-04
4.485	1.365	6.915E-04
4.516	1.364	8.574E-04
4.548	1.364	1.040E-03
4.580	1.364	8.884E-04
4.613	1.363	5.642E-04
4.646	1.364	4.543E-04
4.680	1.363	4.519E-04
4.714	1.363	5.281E-04
4.748	1.362	5.900E-04
4.783	1.361	6.849E-04
4.819	1.362	8.192E-04
4.855	1.360	7.626E-04
4.891	1.361	6.210E-04
4.929	1.358	4.887E-04
4.966	1.359	4.502E-04
5.005	1.358	4.932E-04
5.044	1.360	6.766E-04
5.083	1.359	7.311E-04
5.123	1.359	7.284E-04
5.164	1.358	8.278E-04
5.206	1.358	1.120E-03
5.248	1.357	1.770E-03
5.291	1.357	1.430E-03
5.334	1.357	1.070E-03
5.379	1.355	9.483E-04
5.424	1.355	9.287E-04
5.469	1.356	9.621E-04
5.516	1.355	1.020E-03
5.563	1.352	1.170E-03
5.611	1.351	1.620E-03
5.660	1.354	2.800E-03
5.710	1.353	2.060E-03
5.761	1.350	1.740E-03
5.813	1.351	1.620E-03
5.865	1.352	1.520E-03
5.919	1.348	1.570E-03
5.973	1.346	1.700E-03
6.029	1.348	1.780E-03
6.086	1.348	1.870E-03
6.143	1.348	1.980E-03
6.202	1.348	2.100E-03
6.262	1.342	2.340E-03
6.323	1.343	2.620E-03
6.385	1.340	3.020E-03
6.449	1.335	3.700E-03
6.514	1.337	4.670E-03
6.580	1.331	5.870E-03
6.647	1.324	1.059E-02
6.716	1.317	1.898E-02
6.787	1.320	4.245E-02
6.858	1.347	4.301E-02
6.932	1.340	2.827E-02
7.007	1.330	3.711E-02
7.083	1.333	4.679E-02
7.161	1.330	4.526E-02
7.241	1.337	8.822E-02
7.323	1.382	6.133E-02
7.407	1.363	3.771E-02
7.493	1.361	3.987E-02
7.580	1.358	5.188E-02
7.670	1.380	5.971E-02
7.762	1.389	4.457E-02
7.856	1.381	2.340E-02
7.952	1.369	1.184E-02
8.051	1.360	9.010E-03
8.152	1.350	1.522E-02
8.256	1.348	6.210E-03
8.363	1.328	1.301E-02
8.472	1.298	2.324E-02
8.584	1.296	1.104E-01
8.700	1.355	9.229E-02
8.818	1.349	1.260E-01
8.939	1.415	1.125E-01
9.065	1.439	9.055E-02
9.193	1.438	4.026E-02
9.325	1.412	1.795E-02
9.462	1.398	1.142E-02
9.602	1.390	8.810E-03
9.746	1.379	9.940E-03
9.895	1.367	6.810E-03
10.04	1.352	5.780E-03
10.20	1.330	8.100E-03
10.37	1.266	6.112E-02
10.53	1.452	1.611E-01
10.71	1.464	3.232E-02
10.89	1.418	1.650E-02
11.07	1.402	9.820E-03
11.27	1.392	7.520E-03
11.47	1.377	9.670E-03
11.67	1.373	1.668E-02
11.89	1.367	1.045E-02
12.11	1.348	4.304E-02
12.34	1.406	4.999E-02
12.58	1.392	1.335E-02
12.83	1.379	1.754E-02
13.09	1.369	1.998E-02
13.36	1.377	2.910E-02
13.64	1.363	4.639E-02
13.93	1.375	4.298E-02
14.24	1.373	4.635E-02
14.56	1.381	4.682E-02
14.89	1.393	3.984E-02
15.25	1.385	5.740E-02
15.61	1.410	4.304E-02
16.00	1.421	3.856E-02
16.40	1.438	1.745E-02
16.83	1.423	4.557E-02
17.28	1.417	3.416E-02
17.75	1.408	6.958E-02
18.25	1.397	7.226E-02
18.78	1.430	8.269E-02
