Material: organic / C3H8O - propanol / Wang-50C
Optical constants. C. C. Wang, J. Y. Tan, C. Y. Jing, L. H. Liu. Temperature-dependent optical constants of liquid isopropanol, n-butanol and n-decane, Appl. Opt. 57, 3303-3311 (2018) (Numerical data kindly provided by Chengchao Wang)
Comments: Isopropanol, 50 Â°C.
Specs: {"n_absolute": true, "wavelength_vacuum": true, "temperature": "50.0 Â°C"}
wavelength (um)	n	k
1.660	1.345	2.070E-05
1.679	1.357	6.447E-05
1.699	1.356	8.806E-05
1.719	1.358	7.199E-05
1.740	1.357	7.233E-05
1.759	1.358	5.623E-05
1.778	1.356	3.648E-05
1.798	1.353	2.835E-05
1.818	1.350	3.430E-05
1.839	1.346	2.467E-05
1.860	1.346	1.501E-05
1.879	1.345	1.474E-05
1.898	1.348	1.762E-05
1.917	1.351	2.371E-05
1.938	1.352	1.826E-05
1.958	1.352	1.603E-05
1.979	1.350	2.289E-05
1.997	1.349	2.859E-05
2.019	1.349	4.623E-05
2.038	1.350	7.479E-05
2.058	1.349	1.288E-04
2.077	1.347	1.817E-04
2.097	1.344	1.899E-04
2.118	1.341	1.685E-04
2.139	1.342	1.381E-04
2.157	1.343	1.185E-04
2.179	1.345	1.061E-04
2.197	1.345	1.026E-04
2.220	1.344	1.031E-04
2.239	1.343	1.488E-04
2.258	1.343	3.705E-04
2.278	1.342	5.393E-04
2.298	1.343	6.855E-04
2.319	1.344	8.133E-04
2.340	1.342	5.450E-04
2.357	1.341	4.163E-04
2.378	1.341	3.060E-04
2.396	1.340	3.280E-04
2.418	1.341	4.976E-04
2.437	1.342	5.308E-04
2.460	1.343	6.319E-04
2.478	1.342	5.708E-04
2.498	1.341	3.780E-04
2.517	1.341	2.512E-04
2.537	1.341	2.224E-04
2.557	1.341	2.377E-04
2.577	1.341	2.302E-04
2.598	1.341	2.445E-04
2.619	1.340	2.553E-04
2.640	1.337	2.620E-04
2.656	1.335	1.966E-04
2.678	1.334	1.662E-04
2.695	1.333	1.836E-04
2.717	1.332	2.352E-04
2.735	1.331	3.394E-04
2.758	1.329	8.012E-04
2.776	1.325	1.230E-03
2.800	1.320	1.000E-02
2.818	1.314	1.561E-02
2.836	1.314	1.578E-02
2.855	1.316	1.779E-02
2.874	1.313	3.257E-02
2.900	1.309	4.576E-02
2.919	1.315	5.580E-02
2.939	1.321	5.946E-02
2.959	1.342	6.457E-02
2.980	1.351	6.884E-02
2.994	1.360	7.079E-02
3.014	1.364	6.224E-02
3.036	1.373	5.519E-02
3.057	1.378	4.428E-02
3.079	1.379	3.045E-02
3.094	1.377	3.479E-02
3.116	1.373	2.895E-02
3.139	1.373	2.149E-02
3.154	1.370	1.888E-02
3.177	1.366	1.048E-02
3.193	1.365	1.060E-02
3.216	1.362	7.270E-03
3.232	1.360	5.890E-03
3.257	1.353	8.450E-03
3.273	1.349	8.770E-03
3.298	1.345	5.660E-03
3.315	1.336	8.110E-03
3.332	1.322	2.102E-02
3.358	1.322	8.290E-02
3.376	1.384	7.255E-02
3.393	1.384	3.662E-02
3.411	1.373	3.863E-02
3.438	1.377	3.040E-02
3.457	1.377	2.845E-02
3.475	1.384	2.976E-02
3.494	1.388	2.114E-02
3.513	1.387	1.491E-02
3.532	1.382	1.015E-02
3.551	1.376	1.001E-02
3.571	1.372	9.810E-03
3.591	1.373	4.280E-03
3.611	1.371	6.370E-03
3.631	1.370	5.220E-03
3.651	1.366	5.150E-03
3.672	1.368	5.110E-03
3.693	1.369	5.710E-03
3.714	1.368	4.450E-03
3.736	1.363	4.860E-03
3.757	1.364	5.510E-03
3.779	1.366	4.310E-03
3.801	1.366	3.690E-03
3.824	1.362	3.580E-03
3.846	1.363	3.750E-03
3.869	1.361	3.710E-03
3.893	1.360	3.160E-03
3.916	1.360	2.620E-03
3.940	1.362	2.650E-03
3.964	1.360	2.790E-03
3.988	1.358	2.460E-03
4.013	1.359	2.040E-03
4.038	1.360	1.880E-03
4.063	1.359	1.580E-03
4.089	1.360	1.310E-03
4.115	1.360	1.490E-03
4.141	1.356	1.880E-03
4.168	1.358	1.830E-03
4.195	1.356	1.450E-03
4.222	1.351	1.060E-03
4.250	1.355	7.688E-04
4.278	1.351	7.033E-04
4.306	1.353	8.196E-04
4.335	1.355	8.835E-04
4.364	1.356	8.822E-04
4.394	1.357	8.112E-04
4.424	1.356	7.399E-04
4.454	1.356	6.595E-04
4.485	1.355	6.875E-04
4.516	1.353	8.531E-04
4.548	1.354	1.030E-03
4.580	1.354	8.845E-04
4.613	1.354	5.604E-04
4.646	1.352	4.499E-04
4.680	1.354	4.485E-04
4.714	1.352	5.239E-04
4.748	1.351	5.857E-04
4.783	1.351	6.809E-04
4.819	1.352	8.150E-04
4.855	1.352	7.590E-04
4.891	1.351	6.169E-04
4.929	1.349	4.848E-04
4.966	1.350	4.466E-04
5.005	1.349	4.895E-04
5.044	1.352	6.728E-04
5.083	1.350	7.272E-04
5.123	1.350	7.245E-04
5.164	1.350	8.241E-04
5.206	1.350	1.120E-03
5.248	1.349	1.770E-03
5.291	1.347	1.420E-03
5.334	1.348	1.070E-03
5.379	1.346	9.439E-04
5.424	1.345	9.239E-04
5.469	1.348	9.582E-04
5.516	1.346	1.010E-03
5.563	1.345	1.160E-03
5.611	1.342	1.620E-03
5.660	1.345	2.800E-03
5.710	1.344	2.060E-03
5.761	1.342	1.730E-03
5.813	1.342	1.610E-03
5.865	1.343	1.510E-03
5.919	1.338	1.560E-03
5.973	1.337	1.700E-03
6.029	1.338	1.770E-03
6.086	1.338	1.860E-03
6.143	1.340	1.970E-03
6.202	1.338	2.100E-03
6.262	1.334	2.340E-03
6.323	1.335	2.620E-03
6.385	1.332	3.020E-03
6.449	1.327	3.700E-03
6.514	1.329	4.660E-03
6.580	1.322	5.870E-03
6.647	1.317	1.113E-02
6.716	1.309	1.507E-02
6.787	1.308	3.729E-02
6.858	1.334	4.145E-02
6.932	1.330	2.460E-02
7.007	1.324	3.202E-02
7.083	1.324	4.477E-02
7.161	1.321	4.269E-02
7.241	1.326	7.874E-02
7.323	1.375	5.849E-02
7.407	1.355	3.159E-02
7.493	1.352	3.277E-02
7.580	1.346	4.641E-02
7.670	1.364	5.441E-02
7.762	1.374	4.338E-02
7.856	1.367	2.303E-02
7.952	1.356	1.707E-02
8.051	1.351	9.070E-03
8.152	1.341	9.090E-03
8.256	1.337	2.370E-03
8.363	1.322	8.810E-03
8.472	1.296	2.286E-02
8.584	1.288	1.020E-01
8.700	1.345	9.568E-02
8.818	1.341	1.238E-01
8.939	1.400	1.061E-01
9.065	1.421	9.494E-02
9.193	1.425	4.863E-02
9.325	1.403	2.645E-02
9.462	1.389	1.682E-02
9.602	1.379	1.321E-02
9.746	1.371	1.503E-02
9.895	1.356	1.154E-02
10.04	1.347	7.750E-03
10.20	1.327	5.320E-03
10.37	1.270	5.692E-02
10.53	1.434	1.587E-01
10.71	1.456	3.629E-02
10.89	1.408	1.863E-02
11.07	1.392	1.044E-02
11.27	1.385	6.690E-03
11.47	1.373	8.130E-03
11.67	1.364	1.475E-02
11.89	1.365	7.010E-03
12.11	1.338	3.087E-02
12.34	1.395	4.799E-02
12.58	1.381	1.021E-02
12.83	1.370	8.600E-03
13.09	1.358	1.840E-02
13.36	1.365	2.365E-02
13.64	1.353	4.303E-02
13.93	1.363	3.598E-02
14.24	1.362	3.797E-02
14.56	1.360	4.294E-02
14.89	1.376	4.156E-02
15.25	1.384	4.903E-02
15.61	1.376	5.776E-02
16.00	1.374	4.462E-02
16.40	1.408	1.648E-02
16.83	1.402	3.752E-02
17.28	1.384	2.893E-02
17.75	1.353	8.656E-02
18.25	1.424	6.440E-02
18.78	1.427	1.539E-01
