Material: inorganic / SnS2 / Ermolaev
Optical constants. G. A. Ermolaev, D. I. Yakubovsky, M. A. El-Sayed, M. K. Tatmyshevskiy, A. B. Mazitov, A. A. Popkova, I. M. Antropov, V. O. Bessonov, A. S. Slavich, G. I. Tselikov, I. A. Kruglov, S. M. Novikov, A. A. Vyshnevyy, A. A. Fedyanin, A. V. Arsenin, V. S. Volkov. Broadband optical constants and nonlinear properties of SnS2 and SnSe2, Nanomaterials 12, 141 (2022) (Numerical data kindly provided by Georgy Ermolaev)
Comments: 20 nm CVD SnS2.
Specs: {"n_absolute": true, "wavelength_vacuum": true, "film_thickness": "20 nm", "substrate": "SiO2", "deposition_method": "CVD"}
wavelength (um)	n	k
0.300	3.89427	1.04364
0.308	3.53981	1.17882
0.316	3.47226	1.19490
0.324	3.48036	1.14861
0.332	3.50465	1.06805
0.340	3.52408	0.97087
0.348	3.53191	0.86876
0.356	3.52756	0.76913
0.364	3.51291	0.67618
0.372	3.49054	0.59187
0.380	3.46289	0.51676
0.388	3.43198	0.45057
0.396	3.39936	0.39261
0.404	3.36613	0.34201
0.412	3.33307	0.29790
0.420	3.30070	0.25944
0.428	3.26934	0.22586
0.436	3.23919	0.19652
0.444	3.21035	0.17083
0.452	3.18287	0.14831
0.460	3.15674	0.12852
0.468	3.13194	0.11112
0.476	3.10842	0.09580
0.484	3.08612	0.08231
0.492	3.06500	0.07042
0.500	3.04498	0.05994
0.508	3.02601	0.05071
0.516	3.00804	0.04260
0.524	2.99100	0.03548
0.532	2.97484	0.02925
0.540	2.95952	0.02382
0.548	2.94499	0.01911
0.556	2.93121	0.01505
0.564	2.91814	0.01159
0.572	2.90575	0.00867
0.580	2.89401	0.00624
0.588	2.88290	0.00427
0.596	2.87240	0.00271
0.604	2.86248	0.00153
0.612	2.85314	7.00599E-04
0.620	2.84439	2.01335E-04
0.628	2.83623	4.89762E-06
0.636	2.82878	0
0.644	2.82190	0
0.652	2.81549	0
0.660	2.80947	0
0.668	2.80381	0
0.676	2.79846	0
0.684	2.79341	0
0.692	2.78862	0
0.700	2.78408	0
0.708	2.77976	0
0.716	2.77564	0
0.724	2.77172	0
0.732	2.76798	0
0.740	2.76441	0
0.748	2.76099	0
0.756	2.75772	0
0.764	2.75459	0
0.772	2.75158	0
0.780	2.74870	0
0.788	2.74593	0
0.796	2.74327	0
0.804	2.74071	0
0.812	2.73824	0
0.820	2.73587	0
0.828	2.73358	0
0.836	2.73138	0
0.844	2.72926	0
0.852	2.72720	0
0.860	2.72522	0
0.868	2.72331	0
0.876	2.72146	0
0.884	2.71967	0
0.892	2.71794	0
0.900	2.71626	0
0.908	2.71464	0
0.916	2.71307	0
0.924	2.71155	0
0.932	2.71007	0
0.940	2.70864	0
0.948	2.70725	0
0.956	2.70590	0
0.964	2.70459	0
0.972	2.70332	0
0.980	2.70208	0
0.988	2.70088	0
0.996	2.69972	0
1.004	2.69858	0
1.012	2.69748	0
1.020	2.69640	0
1.028	2.69536	0
1.036	2.69434	0
1.044	2.69335	0
1.052	2.69238	0
1.060	2.69144	0
1.068	2.69052	0
1.076	2.68963	0
1.084	2.68876	0
1.092	2.68791	0
1.100	2.68708	0
1.108	2.68627	0
1.116	2.68548	0
1.124	2.68471	0
1.132	2.68395	0
1.140	2.68322	0
1.148	2.68250	0
1.156	2.68180	0
1.164	2.68111	0
1.172	2.68044	0
1.180	2.67979	0
1.188	2.67915	0
1.196	2.67852	0
1.204	2.67791	0
1.212	2.67731	0
1.220	2.67672	0
1.228	2.67615	0
1.236	2.67559	0
1.244	2.67504	0
1.252	2.67450	0
1.260	2.67397	0
1.268	2.67346	0
1.276	2.67295	0
1.284	2.67245	0
1.292	2.67197	0
1.300	2.67149	0
1.308	2.67103	0
1.316	2.67057	0
1.324	2.67012	0
1.332	2.66968	0
1.340	2.66925	0
1.348	2.66883	0
1.356	2.66841	0
1.364	2.66800	0
1.372	2.66760	0
1.380	2.66721	0
1.388	2.66683	0
1.396	2.66645	0
1.404	2.66608	0
1.412	2.66572	0
1.420	2.66536	0
1.428	2.66501	0
1.436	2.66466	0
1.444	2.66432	0
1.452	2.66399	0
1.460	2.66366	0
1.468	2.66334	0
1.476	2.66303	0
1.484	2.66272	0
1.492	2.66241	0
1.500	2.66211	0
1.508	2.66182	0
1.516	2.66153	0
1.524	2.66124	0
1.532	2.66096	0
1.540	2.66069	0
1.548	2.66041	0
1.556	2.66015	0
1.564	2.65989	0
1.572	2.65963	0
1.580	2.65937	0
1.588	2.65912	0
1.596	2.65888	0
1.604	2.65863	0
1.612	2.65840	0
1.620	2.65816	0
1.628	2.65793	0
1.636	2.65770	0
1.644	2.65748	0
1.652	2.65726	0
1.660	2.65704	0
1.668	2.65683	0
1.676	2.65662	0
1.684	2.65641	0
1.692	2.65620	0
1.700	2.65600	0
1.708	2.65580	0
1.716	2.65561	0
1.724	2.65541	0
1.732	2.65522	0
1.740	2.65504	0
1.748	2.65485	0
1.756	2.65467	0
1.764	2.65449	0
1.772	2.65431	0
1.780	2.65414	0
1.788	2.65397	0
1.796	2.65380	0
1.804	2.65363	0
1.812	2.65347	0
1.820	2.65330	0
1.828	2.65314	0
1.836	2.65298	0
1.844	2.65283	0
1.852	2.65267	0
1.860	2.65252	0
1.868	2.65237	0
1.876	2.65222	0
1.884	2.65208	0
1.892	2.65193	0
1.900	2.65179	0
1.908	2.65165	0
1.916	2.65151	0
1.924	2.65138	0
1.932	2.65124	0
1.940	2.65111	0
1.948	2.65098	0
1.956	2.65085	0
1.964	2.65072	0
1.972	2.65059	0
1.980	2.65047	0
1.988	2.65034	0
1.996	2.65022	0
2.004	2.65010	0
2.012	2.64998	0
2.020	2.64986	0
2.028	2.64975	0
2.036	2.64963	0
2.044	2.64952	0
2.052	2.64941	0
2.060	2.64930	0
2.068	2.64919	0
2.076	2.64908	0
2.084	2.64897	0
2.092	2.64887	0
2.100	2.64876	0
2.108	2.64866	0
2.116	2.64856	0
2.124	2.64846	0
2.132	2.64836	0
2.140	2.64826	0
2.148	2.64816	0
2.156	2.64807	0
2.164	2.64797	0
2.172	2.64788	0
2.180	2.64778	0
2.188	2.64769	0
2.196	2.64760	0
2.204	2.64751	0
2.212	2.64742	0
2.220	2.64734	0
2.228	2.64725	0
2.236	2.64716	0
2.244	2.64708	0
2.252	2.64699	0
2.260	2.64691	0
2.268	2.64683	0
2.276	2.64675	0
2.284	2.64667	0
2.292	2.64659	0
2.300	2.64651	0
2.308	2.64643	0
2.316	2.64635	0
2.324	2.64628	0
2.332	2.64620	0
2.340	2.64613	0
2.348	2.64605	0
2.356	2.64598	0
2.364	2.64591	0
2.372	2.64584	0
2.380	2.64577	0
2.388	2.64570	0
2.396	2.64563	0
2.404	2.64556	0
2.412	2.64549	0
2.420	2.64542	0
2.428	2.64536	0
2.436	2.64529	0
2.444	2.64522	0
2.452	2.64516	0
2.460	2.64510	0
2.468	2.64503	0
2.476	2.64497	0
2.484	2.64491	0
2.492	2.64485	0
2.500	2.64479	0
2.508	2.64473	0
2.516	2.64467	0
2.524	2.64461	0
2.532	2.64455	0
2.540	2.64449	0
2.548	2.64443	0
2.556	2.64438	0
2.564	2.64432	0
2.572	2.64426	0
2.580	2.64421	0
2.588	2.64415	0
2.596	2.64410	0
2.604	2.64405	0
2.612	2.64399	0
2.620	2.64394	0
2.628	2.64389	0
2.636	2.64384	0
2.644	2.64378	0
2.652	2.64373	0
2.660	2.64368	0
2.668	2.64363	0
2.676	2.64358	0
2.684	2.64353	0
2.692	2.64349	0
2.700	2.64344	0
2.708	2.64339	0
2.716	2.64334	0
2.724	2.64330	0
2.732	2.64325	0
2.740	2.64320	0
2.748	2.64316	0
2.756	2.64311	0
2.764	2.64307	0
2.772	2.64302	0
2.780	2.64298	0
2.788	2.64294	0
2.796	2.64289	0
2.804	2.64285	0
2.812	2.64281	0
2.820	2.64277	0
2.828	2.64272	0
2.836	2.64268	0
2.844	2.64264	0
2.852	2.64260	0
2.860	2.64256	0
2.868	2.64252	0
2.876	2.64248	0
2.884	2.64244	0
2.892	2.64240	0
2.900	2.64236	0
2.908	2.64233	0
2.916	2.64229	0
2.924	2.64225	0
2.932	2.64221	0
2.940	2.64218	0
2.948	2.64214	0
2.956	2.64210	0
2.964	2.64207	0
2.972	2.64203	0
2.980	2.64199	0
2.988	2.64196	0
2.996	2.64192	0
3.004	2.64189	0
3.012	2.64185	0
3.020	2.64182	0
3.028	2.64179	0
3.036	2.64175	0
3.044	2.64172	0
3.052	2.64169	0
3.060	2.64165	0
3.068	2.64162	0
3.076	2.64159	0
3.084	2.64156	0
3.092	2.64153	0
3.100	2.64149	0
3.108	2.64146	0
3.116	2.64143	0
3.124	2.64140	0
3.132	2.64137	0
3.140	2.64134	0
3.148	2.64131	0
3.156	2.64128	0
3.164	2.64125	0
3.172	2.64122	0
3.180	2.64119	0
3.188	2.64116	0
3.196	2.64113	0
3.204	2.64110	0
3.212	2.64108	0
3.220	2.64105	0
3.228	2.64102	0
3.236	2.64099	0
3.244	2.64097	0
3.252	2.64094	0
3.260	2.64091	0
3.268	2.64088	0
3.276	2.64086	0
3.284	2.64083	0
3.292	2.64080	0
3.300	2.64078	0
