Material: organic / C6H5NO2 - nitrobenzene / Myers
Optical constants. T. L. Myers, R. G. Tonkyn, T. O. Danby, M. S. Taubman, B. E. Bernacki, J. C. Birnbaum, S. W. Sharpe, T. J. Johnson. Accurate measurement of the optical constants n and k for a series of 57 inorganic and organic liquids for optical modeling and detection, Appl. Spectrosc. 72, 535-550 (2018) (see Supplemental Material for numerical data)
Comments: Isopropanol. 26 Â°C.
Specs: {"n_absolute": true, "wavelength_vacuum": true, "temperature": "26 Â°C"}
wavelength (um)	n	k
1.28244E+00	1.52152E+00	1.96445E-05
1.28554E+00	1.52154E+00	2.01063E-05
1.28866E+00	1.52154E+00	1.99586E-05
1.29179E+00	1.52154E+00	2.05517E-05
1.29493E+00	1.52154E+00	2.10481E-05
1.29809E+00	1.52153E+00	2.14861E-05
1.30127E+00	1.52153E+00	2.12395E-05
1.30446E+00	1.52153E+00	2.12284E-05
1.30767E+00	1.52153E+00	2.12269E-05
1.31089E+00	1.52152E+00	2.07211E-05
1.31413E+00	1.52152E+00	2.04602E-05
1.31739E+00	1.52152E+00	1.97399E-05
1.32066E+00	1.52151E+00	1.87696E-05
1.32395E+00	1.52151E+00	1.94980E-05
1.32725E+00	1.52151E+00	1.94161E-05
1.33057E+00	1.52150E+00	1.94818E-05
1.33391E+00	1.52150E+00	1.94921E-05
1.33726E+00	1.52149E+00	2.01882E-05
1.34063E+00	1.52149E+00	1.99534E-05
1.34402E+00	1.52149E+00	1.88203E-05
1.34743E+00	1.52148E+00	1.78920E-05
1.35085E+00	1.52148E+00	1.87337E-05
1.35429E+00	1.52147E+00	1.95575E-05
1.35775E+00	1.52147E+00	1.97790E-05
1.36122E+00	1.52147E+00	1.91351E-05
1.36471E+00	1.52146E+00	1.96493E-05
1.36823E+00	1.52146E+00	1.97916E-05
1.37176E+00	1.52145E+00	1.99845E-05
1.37530E+00	1.52145E+00	1.97140E-05
1.37887E+00	1.52144E+00	2.05086E-05
1.38245E+00	1.52144E+00	2.09409E-05
1.38606E+00	1.52143E+00	2.12390E-05
1.38968E+00	1.52143E+00	2.11195E-05
1.39332E+00	1.52143E+00	2.11860E-05
1.39698E+00	1.52142E+00	2.13154E-05
1.40066E+00	1.52142E+00	2.20391E-05
1.40436E+00	1.52141E+00	2.21819E-05
1.40807E+00	1.52141E+00	2.22654E-05
1.41181E+00	1.52140E+00	2.26389E-05
1.41557E+00	1.52140E+00	2.23716E-05
1.41935E+00	1.52139E+00	2.20388E-05
1.42315E+00	1.52139E+00	2.19498E-05
1.42697E+00	1.52138E+00	2.18897E-05
1.43080E+00	1.52138E+00	2.20303E-05
1.43466E+00	1.52137E+00	2.17571E-05
1.43854E+00	1.52137E+00	2.14038E-05
1.44245E+00	1.52136E+00	2.13690E-05
1.44637E+00	1.52136E+00	2.14627E-05
1.45031E+00	1.52135E+00	2.14388E-05
1.45428E+00	1.52135E+00	2.14588E-05
1.45827E+00	1.52134E+00	2.15373E-05
1.46228E+00	1.52134E+00	2.13606E-05
1.46631E+00	1.52133E+00	2.13992E-05
1.47036E+00	1.52132E+00	2.12918E-05
1.47444E+00	1.52132E+00	2.11233E-05
1.47854E+00	1.52131E+00	2.10452E-05
1.48266E+00	1.52131E+00	2.09158E-05
1.48681E+00	1.52130E+00	2.09070E-05
1.49097E+00	1.52130E+00	2.09063E-05
1.49517E+00	1.52129E+00	2.06808E-05
1.49938E+00	1.52128E+00	2.04467E-05
1.50362E+00	1.52128E+00	2.02748E-05
1.50788E+00	1.52127E+00	1.99356E-05
1.51217E+00	1.52126E+00	1.95434E-05
1.51648E+00	1.52126E+00	1.93977E-05
1.52082E+00	1.52125E+00	1.91781E-05
1.52518E+00	1.52124E+00	1.91673E-05
1.52957E+00	1.52124E+00	1.90534E-05
1.53398E+00	1.52123E+00	1.89227E-05
1.53842E+00	1.52122E+00	1.88193E-05
1.54288E+00	1.52122E+00	1.87909E-05
1.54737E+00	1.52121E+00	1.87666E-05
1.55189E+00	1.52120E+00	1.83528E-05
1.55643E+00	1.52119E+00	1.82293E-05
1.56100E+00	1.52118E+00	1.82232E-05
1.56559E+00	1.52118E+00	1.81956E-05
1.57021E+00	1.52117E+00	1.83367E-05
1.57486E+00	1.52116E+00	1.85004E-05
1.57954E+00	1.52115E+00	1.90773E-05
1.58425E+00	1.52114E+00	1.99480E-05
1.58898E+00	1.52113E+00	2.02187E-05
1.59374E+00	1.52112E+00	2.01199E-05
1.59853E+00	1.52111E+00	2.03819E-05
1.60335E+00	1.52110E+00	2.14582E-05
1.60820E+00	1.52108E+00	2.35574E-05
1.61308E+00	1.52107E+00	2.70076E-05
1.61798E+00	1.52105E+00	3.49986E-05
1.62292E+00	1.52105E+00	4.38874E-05
1.62789E+00	1.52103E+00	4.59877E-05
1.63289E+00	1.52102E+00	5.55328E-05
1.63792E+00	1.52100E+00	5.83374E-05
1.64298E+00	1.52096E+00	9.45849E-05
1.64807E+00	1.52096E+00	1.63662E-04
1.65319E+00	1.52101E+00	1.92029E-04
1.65835E+00	1.52106E+00	1.96514E-04
1.66353E+00	1.52109E+00	1.60051E-04
1.66875E+00	1.52108E+00	1.54564E-04
1.67401E+00	1.52111E+00	1.30998E-04
1.67929E+00	1.52111E+00	9.39615E-05
1.68461E+00	1.52110E+00	7.41967E-05
1.68997E+00	1.52108E+00	5.42929E-05
1.69535E+00	1.52106E+00	4.13724E-05
1.70077E+00	1.52104E+00	3.69325E-05
1.70623E+00	1.52103E+00	4.16791E-05
1.71172E+00	1.52102E+00	3.72492E-05
1.71725E+00	1.52100E+00	3.01182E-05
1.72281E+00	1.52099E+00	2.71842E-05
1.72841E+00	1.52098E+00	2.62695E-05
1.73405E+00	1.52096E+00	2.50361E-05
1.73972E+00	1.52095E+00	2.41672E-05
1.74543E+00	1.52093E+00	2.69070E-05
1.75118E+00	1.52093E+00	3.02792E-05
1.75696E+00	1.52092E+00	3.06659E-05
1.76279E+00	1.52091E+00	2.76321E-05
1.76865E+00	1.52089E+00	2.44210E-05
1.77455E+00	1.52088E+00	2.61972E-05
1.78049E+00	1.52087E+00	2.43510E-05
1.78647E+00	1.52086E+00	2.16118E-05
1.79249E+00	1.52085E+00	2.28065E-05
1.79856E+00	1.52083E+00	2.28135E-05
1.80466E+00	1.52082E+00	2.43445E-05
1.81080E+00	1.52081E+00	2.18850E-05
1.81699E+00	1.52080E+00	2.37942E-05
1.82322E+00	1.52079E+00	2.53010E-05
1.82949E+00	1.52078E+00	2.23832E-05
1.83581E+00	1.52076E+00	2.08040E-05
1.84217E+00	1.52075E+00	2.00393E-05
1.84857E+00	1.52073E+00	2.17182E-05
1.85502E+00	1.52072E+00	2.15538E-05
1.86151E+00	1.52071E+00	2.10219E-05
1.86805E+00	1.52070E+00	2.23536E-05
1.87463E+00	1.52068E+00	2.05553E-05
1.88127E+00	1.52067E+00	1.97446E-05
1.88794E+00	1.52065E+00	2.03376E-05
1.89467E+00	1.52064E+00	2.38834E-05
1.90144E+00	1.52063E+00	2.63960E-05
1.90827E+00	1.52062E+00	2.29302E-05
1.91514E+00	1.52060E+00	2.09777E-05
1.92206E+00	1.52059E+00	2.04535E-05
1.92903E+00	1.52057E+00	1.92188E-05
1.93606E+00	1.52056E+00	1.77185E-05
1.94313E+00	1.52054E+00	1.76593E-05
1.95025E+00	1.52052E+00	1.80549E-05
1.95743E+00	1.52051E+00	1.90982E-05
1.96466E+00	1.52049E+00	1.91633E-05
1.97195E+00	1.52047E+00	1.89403E-05
1.97929E+00	1.52046E+00	1.81141E-05
1.98668E+00	1.52044E+00	1.91233E-05
1.99413E+00	1.52042E+00	1.96195E-05
2.00164E+00	1.52040E+00	1.88303E-05
2.00920E+00	1.52038E+00	1.86715E-05
2.01682E+00	1.52036E+00	1.78526E-05
2.02450E+00	1.52034E+00	1.82251E-05
2.03223E+00	1.52032E+00	1.79039E-05
2.04003E+00	1.52030E+00	1.81089E-05
2.04788E+00	1.52028E+00	1.93520E-05
2.05580E+00	1.52026E+00	2.15647E-05
2.06378E+00	1.52023E+00	2.19263E-05
2.07182E+00	1.52021E+00	2.18336E-05
2.07992E+00	1.52018E+00	2.41806E-05
2.08809E+00	1.52015E+00	2.73583E-05
2.09632E+00	1.52011E+00	2.97895E-05
2.10461E+00	1.52007E+00	3.70703E-05
2.11298E+00	1.52001E+00	6.67824E-05
2.12140E+00	1.51997E+00	1.12536E-04
2.12990E+00	1.51991E+00	2.31011E-04
2.13846E+00	1.52012E+00	3.00234E-04
2.14710E+00	1.52015E+00	2.21702E-04
2.15580E+00	1.52010E+00	1.55353E-04
2.16458E+00	1.52006E+00	1.52202E-04
2.17342E+00	1.52008E+00	1.77323E-04
2.18234E+00	1.52005E+00	1.27400E-04
2.19133E+00	1.51998E+00	1.73314E-04
2.20040E+00	1.52006E+00	1.53978E-04
2.20954E+00	1.52004E+00	9.38507E-05
2.21876E+00	1.51997E+00	4.85440E-05
2.22806E+00	1.51991E+00	6.23637E-05
2.23743E+00	1.51989E+00	6.27622E-05
2.24688E+00	1.51984E+00	6.28786E-05
2.25642E+00	1.51978E+00	8.63451E-05
2.26603E+00	1.51976E+00	1.49223E-04
2.27573E+00	1.51980E+00	1.34821E-04
2.28551E+00	1.51979E+00	1.02297E-04
2.29537E+00	1.51973E+00	5.99375E-05
2.30532E+00	1.51967E+00	6.75559E-05
2.31536E+00	1.51963E+00	5.59853E-05
2.32548E+00	1.51955E+00	6.44351E-05
2.33570E+00	1.51948E+00	1.34674E-04
2.34600E+00	1.51951E+00	1.54870E-04
2.35639E+00	1.51946E+00	1.60874E-04
2.36688E+00	1.51940E+00	1.59054E-04
2.37746E+00	1.51931E+00	2.36184E-04
2.38814E+00	1.51935E+00	3.79765E-04
2.39891E+00	1.51943E+00	3.33498E-04
2.40978E+00	1.51936E+00	2.72496E-04
2.42075E+00	1.51930E+00	2.55441E-04
2.43182E+00	1.51910E+00	3.63823E-04
2.44299E+00	1.51909E+00	9.31306E-04
2.45426E+00	1.51976E+00	7.62210E-04
2.46564E+00	1.51967E+00	3.39431E-04
2.47713E+00	1.51959E+00	3.06101E-04
2.48872E+00	1.51958E+00	2.48421E-04
2.50042E+00	1.51950E+00	1.33219E-04
2.51223E+00	1.51937E+00	1.11856E-04
2.52416E+00	1.51928E+00	1.10587E-04
2.53619E+00	1.51921E+00	1.67120E-04
2.54835E+00	1.51924E+00	1.94063E-04
2.56062E+00	1.51921E+00	1.32416E-04
2.57300E+00	1.51914E+00	9.85256E-05
2.58551E+00	1.51910E+00	8.28978E-05
2.59814E+00	1.51900E+00	5.14415E-05
2.61090E+00	1.51891E+00	5.52171E-05
2.62378E+00	1.51881E+00	8.37261E-05
2.63679E+00	1.51871E+00	1.69331E-04
2.64993E+00	1.51875E+00	2.02693E-04
2.66320E+00	1.51871E+00	1.95596E-04
2.67660E+00	1.51864E+00	1.42753E-04
2.69014E+00	1.51846E+00	3.72410E-04
2.70382E+00	1.51875E+00	3.02341E-04
2.71764E+00	1.51861E+00	3.03885E-04
2.73159E+00	1.51865E+00	2.60848E-04
2.74570E+00	1.51859E+00	2.12026E-04
2.75995E+00	1.51858E+00	1.06867E-04
2.77434E+00	1.51842E+00	8.07444E-05
2.78889E+00	1.51834E+00	1.59588E-04
2.80359E+00	1.51834E+00	1.28263E-04
2.81845E+00	1.51826E+00	8.28292E-05
2.83347E+00	1.51815E+00	5.97559E-05
2.84865E+00	1.51805E+00	7.82820E-05
2.86399E+00	1.51798E+00	8.42726E-05
2.87949E+00	1.51792E+00	8.29499E-05
2.89517E+00	1.51782E+00	4.09862E-05
2.91102E+00	1.51770E+00	3.50277E-05
2.92704E+00	1.51759E+00	3.14149E-05
2.94324E+00	1.51746E+00	2.98743E-05
2.95962E+00	1.51732E+00	5.01479E-05
2.97618E+00	1.51721E+00	6.78542E-05
2.99293E+00	1.51705E+00	7.18229E-05
3.00987E+00	1.51690E+00	9.93901E-05
3.02700E+00	1.51672E+00	1.36147E-04
3.04433E+00	1.51653E+00	1.60856E-04
3.06185E+00	1.51630E+00	2.18086E-04
3.07958E+00	1.51602E+00	2.99022E-04
3.09752E+00	1.51566E+00	4.91410E-04
3.11567E+00	1.51540E+00	8.15800E-04
3.13403E+00	1.51534E+00	1.07664E-03
3.15261E+00	1.51514E+00	1.25232E-03
3.17141E+00	1.51460E+00	1.42865E-03
3.19043E+00	1.51378E+00	2.08962E-03
3.20969E+00	1.51296E+00	4.62340E-03
3.22918E+00	1.51508E+00	4.72053E-03
3.24891E+00	1.51674E+00	9.80706E-03
3.26888E+00	1.52139E+00	3.63425E-03
3.28909E+00	1.51953E+00	2.48234E-03
3.30956E+00	1.51985E+00	1.95337E-03
3.33028E+00	1.51886E+00	8.35654E-04
3.35127E+00	1.51797E+00	6.58796E-04
3.37252E+00	1.51739E+00	6.76061E-04
3.39405E+00	1.51663E+00	1.10970E-03
3.41585E+00	1.51792E+00	1.64633E-03
3.43793E+00	1.51705E+00	8.03890E-04
3.46030E+00	1.51601E+00	1.08659E-03
3.48296E+00	1.51442E+00	2.88105E-03
3.50592E+00	1.52070E+00	3.22264E-03
3.52919E+00	1.51828E+00	7.07277E-04
3.55276E+00	1.51737E+00	6.54343E-04
3.57666E+00	1.51777E+00	9.27234E-04
3.60087E+00	1.51746E+00	6.41722E-04
3.62542E+00	1.51709E+00	3.97621E-04
3.65030E+00	1.51656E+00	1.62723E-04
3.67553E+00	1.51608E+00	3.01533E-04
3.70111E+00	1.51579E+00	6.53712E-04
3.72705E+00	1.51628E+00	6.69662E-04
3.75335E+00	1.51575E+00	3.19402E-04
3.78003E+00	1.51550E+00	4.36599E-04
3.80709E+00	1.51585E+00	8.67400E-04
3.83454E+00	1.51537E+00	3.90092E-04
3.86239E+00	1.51505E+00	6.18406E-04
3.89065E+00	1.51502E+00	2.41327E-04
3.91932E+00	1.51469E+00	1.56233E-04
3.94842E+00	1.51430E+00	9.24703E-05
3.97795E+00	1.51406E+00	1.22301E-04
4.00793E+00	1.51350E+00	1.61673E-04
4.03836E+00	1.51292E+00	5.57598E-04
4.06926E+00	1.51232E+00	2.19338E-03
4.10064E+00	1.51451E+00	7.64303E-04
4.13251E+00	1.51365E+00	6.58276E-04
4.16487E+00	1.51320E+00	1.56722E-04
4.19774E+00	1.51233E+00	4.88125E-04
4.23114E+00	1.51327E+00	8.23758E-04
4.26507E+00	1.51207E+00	3.77944E-04
4.29955E+00	1.51262E+00	1.01370E-03
4.33460E+00	1.51208E+00	2.21645E-04
4.37022E+00	1.51145E+00	1.04119E-04
4.40643E+00	1.51101E+00	6.57117E-04
4.44324E+00	1.51071E+00	2.58638E-04
4.48068E+00	1.51038E+00	2.89371E-04
4.51875E+00	1.50998E+00	6.70623E-04
4.55747E+00	1.51005E+00	6.60522E-04
4.59687E+00	1.50952E+00	1.67749E-04
4.63695E+00	1.50895E+00	1.20702E-04
4.67773E+00	1.50833E+00	1.17361E-04
4.71924E+00	1.50770E+00	1.03499E-04
4.76149E+00	1.50727E+00	9.18868E-05
4.80451E+00	1.50657E+00	3.26598E-05
4.84831E+00	1.50573E+00	5.70042E-05
4.89292E+00	1.50496E+00	2.45631E-04
4.93835E+00	1.50414E+00	6.17363E-04
4.98464E+00	1.50291E+00	9.70391E-04
5.03180E+00	1.50260E+00	2.00968E-03
5.07986E+00	1.50310E+00	2.73661E-03
5.12885E+00	1.50260E+00	9.43385E-04
5.17880E+00	1.50083E+00	1.72332E-03
5.22972E+00	1.50049E+00	2.80125E-03
5.28166E+00	1.50133E+00	8.07295E-04
5.33464E+00	1.49882E+00	2.05028E-04
5.38870E+00	1.49680E+00	1.50516E-04
5.44386E+00	1.49466E+00	5.67986E-04
5.50016E+00	1.49228E+00	1.94210E-03
5.55764E+00	1.49267E+00	2.35733E-03
5.61633E+00	1.48987E+00	2.27065E-03
5.67627E+00	1.48990E+00	2.21478E-03
5.73751E+00	1.48580E+00	2.74358E-03
5.80009E+00	1.48446E+00	1.87443E-03
5.86404E+00	1.47954E+00	6.74321E-04
5.92942E+00	1.47380E+00	9.61467E-04
5.99628E+00	1.46744E+00	1.15104E-03
6.06466E+00	1.45721E+00	3.02926E-03
6.13461E+00	1.44235E+00	6.21753E-03
6.20620E+00	1.43107E+00	2.28825E-02
6.27948E+00	1.43773E+00	1.95610E-02
6.35451E+00	1.41577E+00	1.40830E-02
6.43136E+00	1.35023E+00	2.29845E-02
6.51009E+00	1.10529E+00	1.87329E-01
6.59077E+00	1.97604E+00	3.33963E-01
6.67347E+00	1.65317E+00	3.01088E-02
6.75828E+00	1.55503E+00	8.14898E-02
6.84526E+00	1.56703E+00	1.48009E-02
6.93452E+00	1.54031E+00	7.61709E-03
7.02614E+00	1.51277E+00	7.01288E-03
7.12021E+00	1.48970E+00	8.57607E-03
7.21683E+00	1.44428E+00	2.27588E-02
7.31611E+00	1.32821E+00	5.14418E-02
7.41816E+00	1.60764E+00	1.00371E+00
7.52310E+00	1.71665E+00	2.72109E-02
7.63105E+00	1.64304E+00	2.97964E-02
7.74214E+00	1.61495E+00	6.72372E-03
7.85651E+00	1.58864E+00	5.53368E-03
7.97432E+00	1.57469E+00	7.62897E-03
8.09571E+00	1.56998E+00	3.63234E-03
8.22085E+00	1.55986E+00	2.79457E-03
8.34992E+00	1.55063E+00	3.43238E-03
8.48311E+00	1.53759E+00	1.30418E-02
8.62062E+00	1.55336E+00	1.37203E-02
8.76266E+00	1.54162E+00	4.22944E-03
8.90946E+00	1.52796E+00	7.19854E-03
9.06127E+00	1.55689E+00	3.26114E-02
9.21833E+00	1.54534E+00	9.87211E-03
9.38094E+00	1.57007E+00	2.96657E-02
9.54938E+00	1.54579E+00	2.35827E-03
9.72399E+00	1.52509E+00	5.00706E-03
9.90510E+00	1.54419E+00	5.21299E-03
1.00931E+01	1.53831E+00	4.12793E-03
1.02883E+01	1.53331E+00	4.89115E-03
1.04913E+01	1.52435E+00	2.22623E-03
1.07024E+01	1.52924E+00	2.84814E-02
1.09222E+01	1.52486E+00	8.17573E-04
1.11512E+01	1.51295E+00	5.47388E-04
1.13901E+01	1.49549E+00	2.03568E-03
1.16394E+01	1.42702E+00	2.43923E-02
1.18998E+01	1.55728E+00	2.03299E-02
1.21722E+01	1.51491E+00	6.27985E-03
1.24573E+01	1.45384E+00	1.91386E-02
1.27561E+01	1.56815E+00	1.43535E-02
1.30696E+01	1.50747E+00	6.56599E-03
1.33988E+01	1.47054E+00	1.02437E-02
1.37451E+01	1.38998E+00	1.50161E-02
1.41098E+01	1.13046E+00	5.64902E-01
1.44944E+01	1.69868E+00	4.80805E-02
1.49005E+01	1.77367E+00	5.22448E-02
1.53300E+01	1.65801E+00	4.92141E-03
1.57850E+01	1.62195E+00	1.53408E-03
1.62679E+01	1.60345E+00	2.19904E-03
1.67812E+01	1.59385E+00	5.06736E-04
1.73280E+01	1.58499E+00	7.73008E-05
1.79116E+01	1.57706E+00	7.93161E-04
1.85358E+01	1.56956E+00	7.28152E-03
1.92052E+01	1.57669E+00	7.00660E-03
1.99247E+01	1.57357E+00	3.75690E-03
2.07003E+01	1.57041E+00	2.63963E-03
2.15387E+01	1.56718E+00	2.22353E-03
2.24478E+01	1.56390E+00	3.22867E-03
2.34371E+01	1.56299E+00	8.23966E-03
2.45175E+01	1.56371E+00	9.33631E-03
