Material: main / MoSe2 / Hsu-1L
Optical constants. C. Hsu, R. Frisenda, R. Schmidt, A. Arora, S. M. de Vasconcellos, R. Bratschitsch, H. S. J. van der Zant, A. Castellanos-Gomez. Thickness-dependent refractive index of 1L, 2L, and 3L MoS2, MoSe2, WS2, and WSe2, Adv. Optical Mater. 7, 1900239 (2019) (Numerical data kindly provided by Andres Castellanos-Gomez)
Comments: Monolayer (1-layer, 1L)
Specs: {"n_absolute": true, "wavelength_vacuum": true, "film_thickness": "1L"}
wavelength (um)	n	k
0.39697	3.7460E+00	1.3010E+00
0.39827	3.8510E+00	1.3195E+00
0.39958	3.8635E+00	1.3247E+00
0.40088	3.7926E+00	1.3450E+00
0.40219	3.7153E+00	1.3814E+00
0.40349	3.6455E+00	1.4356E+00
0.40480	3.5672E+00	1.4974E+00
0.40610	3.4889E+00	1.5642E+00
0.40741	3.4222E+00	1.6337E+00
0.40872	3.3714E+00	1.7065E+00
0.41002	3.3376E+00	1.7784E+00
0.41133	3.3111E+00	1.8521E+00
0.41264	3.2921E+00	1.9257E+00
0.41395	3.2688E+00	2.0028E+00
0.41526	3.2519E+00	2.0756E+00
0.41657	3.2487E+00	2.1391E+00
0.41788	3.2582E+00	2.1907E+00
0.41919	3.2698E+00	2.2364E+00
0.42051	3.2762E+00	2.2838E+00
0.42182	3.2857E+00	2.3321E+00
0.42313	3.3005E+00	2.3803E+00
0.42444	3.3206E+00	2.4260E+00
0.42576	3.3460E+00	2.4692E+00
0.42707	3.3799E+00	2.5082E+00
0.42839	3.4180E+00	2.5462E+00
0.42970	3.4529E+00	2.5843E+00
0.43102	3.4942E+00	2.6216E+00
0.43234	3.5397E+00	2.6546E+00
0.43365	3.5894E+00	2.6876E+00
0.43497	3.6434E+00	2.7181E+00
0.43629	3.7005E+00	2.7486E+00
0.43761	3.7556E+00	2.7774E+00
0.43893	3.8138E+00	2.8019E+00
0.44025	3.8688E+00	2.8248E+00
0.44157	3.9270E+00	2.8442E+00
0.44289	3.9810E+00	2.8646E+00
0.44421	4.0370E+00	2.8832E+00
0.44553	4.0910E+00	2.9001E+00
0.44685	4.1471E+00	2.9145E+00
0.44818	4.2011E+00	2.9297E+00
0.44950	4.2540E+00	2.9450E+00
0.45082	4.3048E+00	2.9585E+00
0.45215	4.3587E+00	2.9695E+00
0.45347	4.4116E+00	2.9814E+00
0.45480	4.4624E+00	2.9932E+00
0.45612	4.5164E+00	3.0025E+00
0.45745	4.5704E+00	3.0102E+00
0.45878	4.6190E+00	3.0178E+00
0.46010	4.6677E+00	3.0254E+00
0.46143	4.7185E+00	3.0296E+00
0.46276	4.7693E+00	3.0305E+00
0.46409	4.8159E+00	3.0288E+00
0.46542	4.8614E+00	3.0262E+00
0.46675	4.9048E+00	3.0229E+00
0.46808	4.9524E+00	3.0161E+00
0.46941	5.0000E+00	3.0068E+00
0.47074	5.0466E+00	2.9949E+00
0.47208	5.0878E+00	2.9814E+00
0.47341	5.1280E+00	2.9653E+00
0.47474	5.1672E+00	2.9467E+00
0.47607	5.2032E+00	2.9255E+00
0.47741	5.2392E+00	2.9035E+00
0.47874	5.2741E+00	2.8806E+00
0.48008	5.3069E+00	2.8561E+00
0.48141	5.3386E+00	2.8298E+00
0.48275	5.3661E+00	2.8019E+00
0.48408	5.3915E+00	2.7706E+00
0.48542	5.4159E+00	2.7410E+00
0.48676	5.4381E+00	2.7079E+00
0.48810	5.4593E+00	2.6741E+00
0.48944	5.4794E+00	2.6411E+00
0.49077	5.4984E+00	2.6080E+00
0.49211	5.5153E+00	2.5742E+00
0.49345	5.5312E+00	2.5412E+00
0.49479	5.5429E+00	2.5073E+00
0.49613	5.5545E+00	2.4743E+00
0.49747	5.5651E+00	2.4413E+00
0.49882	5.5735E+00	2.4083E+00
0.50016	5.5820E+00	2.3752E+00
0.50150	5.5894E+00	2.3456E+00
0.50284	5.5958E+00	2.3134E+00
0.50419	5.6011E+00	2.2847E+00
0.50553	5.6042E+00	2.2559E+00
0.50688	5.6106E+00	2.2254E+00
0.50822	5.6148E+00	2.1966E+00
0.50957	5.6190E+00	2.1687E+00
0.51091	5.6222E+00	2.1424E+00
0.51226	5.6233E+00	2.1170E+00
0.51361	5.6233E+00	2.0933E+00
0.51496	5.6233E+00	2.0696E+00
0.51631	5.6233E+00	2.0459E+00
0.51765	5.6233E+00	2.0222E+00
0.51900	5.6233E+00	1.9994E+00
0.52035	5.6233E+00	1.9774E+00
0.52170	5.6233E+00	1.9562E+00
0.52305	5.6212E+00	1.9359E+00
0.52440	5.6180E+00	1.9156E+00
0.52576	5.6148E+00	1.8944E+00
0.52711	5.6116E+00	1.8749E+00
0.52846	5.6085E+00	1.8546E+00
0.52981	5.6074E+00	1.8360E+00
0.53117	5.6053E+00	1.8182E+00
0.53252	5.6021E+00	1.8004E+00
0.53387	5.5989E+00	1.7818E+00
0.53523	5.5968E+00	1.7632E+00
0.53658	5.5937E+00	1.7454E+00
0.53794	5.5915E+00	1.7276E+00
0.53929	5.5915E+00	1.7090E+00
0.54065	5.5915E+00	1.6895E+00
0.54201	5.5915E+00	1.6709E+00
0.54337	5.5937E+00	1.6514E+00
0.54472	5.5968E+00	1.6311E+00
0.54608	5.5989E+00	1.6108E+00
0.54744	5.5989E+00	1.5913E+00
0.54880	5.6000E+00	1.5727E+00
0.55016	5.6032E+00	1.5515E+00
0.55152	5.6063E+00	1.5321E+00
0.55288	5.6074E+00	1.5109E+00
0.55424	5.6095E+00	1.4889E+00
0.55561	5.6116E+00	1.4669E+00
0.55697	5.6116E+00	1.4449E+00
0.55833	5.6095E+00	1.4237E+00
0.55969	5.6063E+00	1.4025E+00
0.56106	5.6053E+00	1.3814E+00
0.56242	5.6032E+00	1.3594E+00
0.56378	5.6000E+00	1.3374E+00
0.56515	5.5937E+00	1.3170E+00
0.56652	5.5894E+00	1.2950E+00
0.56788	5.5810E+00	1.2764E+00
0.56925	5.5725E+00	1.2578E+00
0.57061	5.5630E+00	1.2400E+00
0.57198	5.5545E+00	1.2231E+00
0.57335	5.5450E+00	1.2070E+00
0.57472	5.5344E+00	1.1918E+00
0.57609	5.5217E+00	1.1782E+00
0.57745	5.5111E+00	1.1655E+00
0.57882	5.4995E+00	1.1528E+00
0.58019	5.4878E+00	1.1418E+00
0.58156	5.4762E+00	1.1308E+00
0.58293	5.4646E+00	1.1223E+00
0.58430	5.4497E+00	1.1147E+00
0.58568	5.4370E+00	1.1079E+00
0.58705	5.4254E+00	1.1003E+00
0.58842	5.4159E+00	1.0927E+00
0.58979	5.4063E+00	1.0859E+00
0.59117	5.3968E+00	1.0792E+00
0.59254	5.3862E+00	1.0732E+00
0.59392	5.3778E+00	1.0665E+00
0.59529	5.3672E+00	1.0614E+00
0.59667	5.3587E+00	1.0571E+00
0.59804	5.3534E+00	1.0504E+00
0.59942	5.3503E+00	1.0436E+00
0.60080	5.3450E+00	1.0377E+00
0.60217	5.3386E+00	1.0334E+00
0.60355	5.3333E+00	1.0284E+00
0.60493	5.3270E+00	1.0241E+00
0.60630	5.3196E+00	1.0207E+00
0.60768	5.3143E+00	1.0165E+00
0.60906	5.3079E+00	1.0114E+00
0.61044	5.3005E+00	1.0089E+00
0.61182	5.2942E+00	1.0047E+00
0.61320	5.2857E+00	1.0013E+00
0.61458	5.2825E+00	9.9450E-01
0.61597	5.2794E+00	9.8773E-01
0.61735	5.2741E+00	9.8180E-01
0.61873	5.2688E+00	9.7672E-01
0.62011	5.2624E+00	9.7164E-01
0.62149	5.2571E+00	9.6741E-01
0.62288	5.2529E+00	9.6149E-01
0.62426	5.2466E+00	9.5641E-01
0.62565	5.2434E+00	9.4879E-01
0.62703	5.2392E+00	9.4201E-01
0.62841	5.2339E+00	9.3694E-01
0.62980	5.2254E+00	9.3355E-01
0.63119	5.2159E+00	9.3016E-01
0.63257	5.2074E+00	9.2593E-01
0.63396	5.2011E+00	9.2085E-01
0.63535	5.1947E+00	9.1746E-01
0.63673	5.1894E+00	9.1323E-01
0.63812	5.1820E+00	9.0900E-01
0.63951	5.1746E+00	9.0646E-01
0.64090	5.1651E+00	9.0477E-01
0.64229	5.1566E+00	9.0223E-01
0.64368	5.1481E+00	9.0053E-01
0.64507	5.1407E+00	9.0053E-01
0.64646	5.1323E+00	9.0138E-01
0.64785	5.1238E+00	9.0392E-01
0.64924	5.1132E+00	9.0646E-01
0.65064	5.1016E+00	9.0900E-01
0.65203	5.0878E+00	9.1492E-01
0.65342	5.0741E+00	9.2000E-01
0.65481	5.0593E+00	9.2678E-01
0.65621	5.0455E+00	9.3440E-01
0.65760	5.0317E+00	9.4455E-01
0.65899	5.0148E+00	9.5556E-01
0.66039	4.9968E+00	9.6657E-01
0.66179	4.9788E+00	9.8011E-01
0.66318	4.9630E+00	9.9535E-01
0.66458	4.9471E+00	1.0131E+00
0.66597	4.9312E+00	1.0318E+00
0.66737	4.9164E+00	1.0529E+00
0.66877	4.9026E+00	1.0749E+00
0.67016	4.8910E+00	1.0969E+00
0.67156	4.8794E+00	1.1206E+00
0.67296	4.8698E+00	1.1460E+00
0.67436	4.8635E+00	1.1723E+00
0.67576	4.8614E+00	1.1985E+00
0.67716	4.8635E+00	1.2222E+00
0.67856	4.8677E+00	1.2459E+00
0.67996	4.8751E+00	1.2679E+00
0.68136	4.8889E+00	1.2874E+00
0.68276	4.9048E+00	1.3035E+00
0.68416	4.9228E+00	1.3145E+00
0.68556	4.9460E+00	1.3204E+00
0.68697	4.9735E+00	1.3213E+00
0.68837	5.0032E+00	1.3145E+00
0.68977	5.0349E+00	1.3018E+00
0.69117	5.0677E+00	1.2798E+00
0.69258	5.0995E+00	1.2519E+00
0.69398	5.1312E+00	1.2146E+00
0.69539	5.1651E+00	1.1765E+00
0.69679	5.1989E+00	1.1333E+00
0.69820	5.2307E+00	1.0902E+00
0.69960	5.2614E+00	1.0419E+00
0.70101	5.2910E+00	9.9450E-01
0.70242	5.3175E+00	9.4540E-01
0.70383	5.3376E+00	8.9884E-01
0.70523	5.3556E+00	8.5651E-01
0.70664	5.3735E+00	8.1757E-01
0.70805	5.3905E+00	7.7440E-01
0.70946	5.4000E+00	7.3630E-01
0.71087	5.4053E+00	7.0159E-01
0.71228	5.4085E+00	6.7112E-01
0.71369	5.4074E+00	6.4064E-01
0.71509	5.4032E+00	6.1101E-01
0.71651	5.3958E+00	5.8561E-01
0.71792	5.3873E+00	5.6106E-01
0.71933	5.3767E+00	5.3905E-01
0.72074	5.3630E+00	5.1704E-01
0.72215	5.3481E+00	4.9672E-01
0.72356	5.3354E+00	4.7895E-01
0.72498	5.3206E+00	4.6371E-01
0.72639	5.3016E+00	4.5016E-01
0.72780	5.2815E+00	4.3746E-01
0.72922	5.2646E+00	4.2646E-01
0.73063	5.2476E+00	4.1630E-01
0.73205	5.2286E+00	4.0695E-01
0.73346	5.2095E+00	3.9815E-01
0.73488	5.1926E+00	3.9149E-01
0.73629	5.1735E+00	3.8750E-01
0.73771	5.1513E+00	3.8745E-01
0.73912	5.1302E+00	3.8535E-01
0.74054	5.1143E+00	3.8048E-01
0.74196	5.1005E+00	3.7607E-01
0.74338	5.0868E+00	3.7533E-01
0.74479	5.0698E+00	3.7696E-01
0.74621	5.0519E+00	3.8035E-01
0.74763	5.0370E+00	3.8444E-01
0.74905	5.0233E+00	3.8751E-01
0.75047	5.0159E+00	3.8850E-01
0.75189	5.0074E+00	3.9284E-01
0.75331	4.9979E+00	4.0010E-01
0.75473	4.9894E+00	4.0925E-01
0.75615	4.9841E+00	4.1745E-01
0.75758	4.9810E+00	4.2507E-01
0.75899	4.9746E+00	4.3523E-01
0.76042	4.9661E+00	4.4877E-01
0.76184	4.9577E+00	4.6486E-01
0.76326	4.9545E+00	4.8094E-01
0.76469	4.9524E+00	4.9872E-01
0.76611	4.9513E+00	5.2073E-01
0.76754	4.9545E+00	5.4443E-01
0.76896	4.9608E+00	5.6814E-01
0.77038	4.9693E+00	5.9607E-01
0.77181	4.9862E+00	6.2570E-01
0.77323	5.0148E+00	6.5110E-01
0.77466	5.0487E+00	6.7481E-01
0.77609	5.0910E+00	6.9174E-01
0.77751	5.1429E+00	7.0443E-01
0.77894	5.2021E+00	7.0697E-01
0.78037	5.2709E+00	6.9936E-01
0.78179	5.3418E+00	6.8242E-01
0.78322	5.4138E+00	6.5533E-01
0.78465	5.4825E+00	6.1978E-01
0.78608	5.5418E+00	5.7660E-01
0.78751	5.5905E+00	5.3343E-01
0.78893	5.6339E+00	4.8941E-01
0.79037	5.6730E+00	4.3962E-01
0.79180	5.7037E+00	3.8597E-01
0.79322	5.7249E+00	3.3439E-01
0.79466	5.7344E+00	2.8680E-01
0.79609	5.7354E+00	2.4446E-01
0.79752	5.7333E+00	2.0501E-01
0.79895	5.7228E+00	1.6955E-01
0.80038	5.7122E+00	1.3844E-01
0.80182	5.7016E+00	1.1020E-01
0.80325	5.6963E+00	7.9302E-02
0.80468	5.6889E+00	4.6292E-02
0.80611	5.6794E+00	1.8142E-02
0.80755	5.6571E+00	3.4686E-03
0.80898	5.6265E+00	0.0000E+00
0.81042	5.5894E+00	0.0000E+00
0.81185	5.5524E+00	0.0000E+00
0.81329	5.5132E+00	0.0000E+00
0.81472	5.4730E+00	0.0000E+00
0.81615	5.4402E+00	0.0000E+00
0.81759	5.4053E+00	0.0000E+00
0.81903	5.3693E+00	0.0000E+00
0.82046	5.3323E+00	0.0000E+00
0.82191	5.2963E+00	0.0000E+00
0.82334	5.2624E+00	0.0000E+00
0.82478	5.2286E+00	0.0000E+00
0.82622	5.2032E+00	0.0000E+00
0.82765	5.1915E+00	0.0000E+00
0.82909	5.1841E+00	0.0000E+00
0.83053	5.1608E+00	0.0000E+00
0.83197	5.1344E+00	0.0000E+00
0.83341	5.1122E+00	0.0000E+00
0.83485	5.0910E+00	0.0000E+00
0.83629	5.0635E+00	0.0000E+00
0.83773	5.0349E+00	0.0000E+00
0.83918	5.0085E+00	0.0000E+00
0.84062	4.9841E+00	0.0000E+00
0.84206	4.9556E+00	0.0000E+00
0.84350	4.9333E+00	0.0000E+00
0.84494	4.9196E+00	0.0000E+00
0.84638	4.9016E+00	0.0000E+00
0.84783	4.8794E+00	0.0000E+00
0.84927	4.8614E+00	0.0000E+00
0.85071	4.8497E+00	0.0000E+00
0.85216	4.8455E+00	0.0000E+00
0.85360	4.8455E+00	0.0000E+00
0.85505	4.8275E+00	0.0000E+00
0.85649	4.7968E+00	0.0000E+00
