Material: main / MoSe2 / Hsu-3L
Optical constants. C. Hsu, R. Frisenda, R. Schmidt, A. Arora, S. M. de Vasconcellos, R. Bratschitsch, H. S. J. van der Zant, A. Castellanos-Gomez. Thickness-dependent refractive index of 1L, 2L, and 3L MoS2, MoSe2, WS2, and WSe2, Adv. Optical Mater. 7, 1900239 (2019) (Numerical data kindly provided by Andres Castellanos-Gomez)
Comments: 3-layer (3L)
Specs: {"n_absolute": true, "wavelength_vacuum": true, "film_thickness": "3L"}
wavelength (um)	n	k
0.39697	4.5556E+00	4.2178E+00
0.39827	4.8498E+00	4.3204E+00
0.39958	4.8497E+00	4.2443E+00
0.40088	4.8370E+00	4.1766E+00
0.40219	4.8434E+00	4.1385E+00
0.40349	4.8688E+00	4.1131E+00
0.40480	4.9005E+00	4.0856E+00
0.40610	4.9259E+00	4.0570E+00
0.40741	4.9513E+00	4.0358E+00
0.40872	4.9757E+00	4.0252E+00
0.41002	4.9968E+00	4.0231E+00
0.41133	5.0127E+00	4.0231E+00
0.41264	5.0243E+00	4.0231E+00
0.41395	5.0222E+00	4.0200E+00
0.41526	5.0053E+00	4.0168E+00
0.41657	4.9788E+00	4.0125E+00
0.41788	4.9492E+00	4.0062E+00
0.41919	4.9143E+00	3.9946E+00
0.42051	4.8741E+00	3.9745E+00
0.42182	4.8328E+00	3.9543E+00
0.42313	4.7979E+00	3.9321E+00
0.42444	4.7630E+00	3.9067E+00
0.42576	4.7312E+00	3.8760E+00
0.42707	4.7058E+00	3.8454E+00
0.42839	4.6847E+00	3.8147E+00
0.42970	4.6656E+00	3.7850E+00
0.43102	4.6455E+00	3.7575E+00
0.43234	4.6265E+00	3.7289E+00
0.43365	4.6106E+00	3.7067E+00
0.43497	4.6011E+00	3.6856E+00
0.43629	4.5926E+00	3.6686E+00
0.43761	4.5820E+00	3.6485E+00
0.43893	4.5714E+00	3.6263E+00
0.44025	4.5630E+00	3.6051E+00
0.44157	4.5566E+00	3.5808E+00
0.44289	4.5524E+00	3.5554E+00
0.44421	4.5471E+00	3.5247E+00
0.44553	4.5439E+00	3.4919E+00
0.44685	4.5429E+00	3.4570E+00
0.44818	4.5397E+00	3.4178E+00
0.44950	4.5344E+00	3.3734E+00
0.45082	4.5323E+00	3.3311E+00
0.45215	4.5344E+00	3.2919E+00
0.45347	4.5354E+00	3.2506E+00
0.45480	4.5344E+00	3.2062E+00
0.45612	4.5312E+00	3.1575E+00
0.45745	4.5280E+00	3.1067E+00
0.45878	4.5302E+00	3.0612E+00
0.46011	4.5312E+00	3.0147E+00
0.46143	4.5280E+00	2.9639E+00
0.46276	4.5302E+00	2.9184E+00
0.46409	4.5280E+00	2.8655E+00
0.46542	4.5280E+00	2.8136E+00
0.46675	4.5259E+00	2.7618E+00
0.46808	4.5259E+00	2.7141E+00
0.46941	4.5270E+00	2.6707E+00
0.47074	4.5312E+00	2.6327E+00
0.47207	4.5386E+00	2.6009E+00
0.47341	4.5439E+00	2.5692E+00
0.47474	4.5503E+00	2.5406E+00
0.47607	4.5640E+00	2.5205E+00
0.47741	4.5778E+00	2.5025E+00
0.47874	4.5894E+00	2.4845E+00
0.48008	4.5979E+00	2.4655E+00
0.48141	4.6085E+00	2.4517E+00
0.48275	4.6222E+00	2.4411E+00
0.48408	4.6370E+00	2.4327E+00
0.48542	4.6540E+00	2.4263E+00
0.48676	4.6677E+00	2.4178E+00
0.48810	4.6847E+00	2.4147E+00
0.48943	4.7005E+00	2.4115E+00
0.49077	4.7164E+00	2.4115E+00
0.49211	4.7323E+00	2.4125E+00
0.49345	4.7492E+00	2.4147E+00
0.49479	4.7672E+00	2.4178E+00
0.49613	4.7831E+00	2.4189E+00
0.49748	4.7989E+00	2.4221E+00
0.49882	4.8138E+00	2.4231E+00
0.50016	4.8296E+00	2.4295E+00
0.50150	4.8455E+00	2.4358E+00
0.50285	4.8614E+00	2.4401E+00
0.50419	4.8783E+00	2.4464E+00
0.50553	4.8942E+00	2.4517E+00
0.50688	4.9090E+00	2.4538E+00
0.50822	4.9249E+00	2.4602E+00
0.50957	4.9407E+00	2.4665E+00
0.51092	4.9556E+00	2.4697E+00
0.51226	4.9704E+00	2.4782E+00
0.51361	4.9820E+00	2.4813E+00
0.51496	4.9958E+00	2.4887E+00
0.51630	5.0074E+00	2.4898E+00
0.51765	5.0212E+00	2.4972E+00
0.51900	5.0307E+00	2.4972E+00
0.52035	5.0413E+00	2.5014E+00
0.52170	5.0508E+00	2.5036E+00
0.52305	5.0624E+00	2.5088E+00
0.52440	5.0698E+00	2.5057E+00
0.52575	5.0783E+00	2.5057E+00
0.52711	5.0836E+00	2.4983E+00
0.52846	5.0889E+00	2.4898E+00
0.52981	5.0921E+00	2.4792E+00
0.53117	5.0952E+00	2.4676E+00
0.53252	5.0984E+00	2.4538E+00
0.53387	5.0995E+00	2.4369E+00
0.53523	5.0974E+00	2.4157E+00
0.53658	5.0952E+00	2.3967E+00
0.53794	5.0910E+00	2.3734E+00
0.53930	5.0868E+00	2.3480E+00
0.54065	5.0815E+00	2.3194E+00
0.54201	5.0762E+00	2.2877E+00
0.54337	5.0698E+00	2.2528E+00
0.54472	5.0635E+00	2.2189E+00
0.54608	5.0550E+00	2.1840E+00
0.54744	5.0476E+00	2.1480E+00
0.54880	5.0434E+00	2.1131E+00
0.55016	5.0413E+00	2.0792E+00
0.55152	5.0402E+00	2.0464E+00
0.55288	5.0423E+00	2.0157E+00
0.55424	5.0466E+00	1.9861E+00
0.55560	5.0519E+00	1.9575E+00
0.55697	5.0603E+00	1.9332E+00
0.55833	5.0709E+00	1.9078E+00
0.55969	5.0857E+00	1.8845E+00
0.56106	5.1016E+00	1.8633E+00
0.56242	5.1175E+00	1.8411E+00
0.56378	5.1354E+00	1.8200E+00
0.56515	5.1534E+00	1.7988E+00
0.56651	5.1735E+00	1.7776E+00
0.56788	5.1926E+00	1.7543E+00
0.56925	5.2116E+00	1.7311E+00
0.57061	5.2307E+00	1.7067E+00
0.57198	5.2487E+00	1.6813E+00
0.57335	5.2614E+00	1.6528E+00
0.57472	5.2529E+00	1.5998E+00
0.57609	5.2138E+00	1.5205E+00
0.57745	5.1524E+00	1.4274E+00
0.57882	5.0804E+00	1.3374E+00
0.58019	5.0053E+00	1.2591E+00
0.58156	4.9302E+00	1.1924E+00
0.58293	4.8614E+00	1.1385E+00
0.58431	4.8011E+00	1.0961E+00
0.58568	4.7429E+00	1.0612E+00
0.58705	4.6899E+00	1.0337E+00
0.58842	4.6444E+00	1.0125E+00
0.58979	4.6032E+00	9.9667E-01
0.59117	4.5630E+00	9.8398E-01
0.59254	4.5302E+00	9.7445E-01
0.59392	4.5016E+00	9.6599E-01
0.59529	4.4794E+00	9.6175E-01
0.59667	4.4582E+00	9.5752E-01
0.59804	4.4402E+00	9.5435E-01
0.59942	4.4233E+00	9.5223E-01
0.60079	4.4095E+00	9.5223E-01
0.60217	4.3989E+00	9.5223E-01
0.60355	4.3915E+00	9.5223E-01
0.60493	4.3873E+00	9.5223E-01
0.60630	4.3852E+00	9.5223E-01
0.60768	4.3852E+00	9.5223E-01
0.60906	4.3852E+00	9.5435E-01
0.61044	4.3852E+00	9.5752E-01
0.61182	4.3873E+00	9.5964E-01
0.61320	4.3915E+00	9.5964E-01
0.61458	4.3968E+00	9.5964E-01
0.61596	4.4021E+00	9.5964E-01
0.61735	4.4074E+00	9.5964E-01
0.61873	4.4127E+00	9.5964E-01
0.62011	4.4180E+00	9.6175E-01
0.62149	4.4233E+00	9.6493E-01
0.62288	4.4296E+00	9.6810E-01
0.62426	4.4360E+00	9.6810E-01
0.62565	4.4434E+00	9.6810E-01
0.62703	4.4497E+00	9.6810E-01
0.62842	4.4582E+00	9.6810E-01
0.62980	4.4646E+00	9.6810E-01
0.63119	4.4730E+00	9.6810E-01
0.63257	4.4804E+00	9.6810E-01
0.63396	4.4878E+00	9.6810E-01
0.63535	4.4952E+00	9.6810E-01
0.63673	4.5037E+00	9.6810E-01
0.63812	4.5101E+00	9.6810E-01
0.63951	4.5185E+00	9.6810E-01
0.64090	4.5270E+00	9.6810E-01
0.64229	4.5365E+00	9.6810E-01
0.64368	4.5439E+00	9.6810E-01
0.64507	4.5524E+00	9.7128E-01
0.64646	4.5598E+00	9.7445E-01
0.64785	4.5683E+00	9.7551E-01
0.64924	4.5746E+00	9.7763E-01
0.65063	4.5810E+00	9.8080E-01
0.65203	4.5873E+00	9.8503E-01
0.65342	4.5937E+00	9.8821E-01
0.65481	4.5979E+00	9.9350E-01
0.65621	4.5989E+00	9.9667E-01
0.65760	4.6000E+00	1.0020E+00
0.65899	4.6032E+00	1.0062E+00
0.66039	4.6063E+00	1.0115E+00
0.66178	4.6074E+00	1.0178E+00
0.66318	4.6074E+00	1.0252E+00
0.66458	4.6074E+00	1.0316E+00
0.66597	4.6074E+00	1.0401E+00
0.66737	4.6074E+00	1.0496E+00
0.66877	4.6074E+00	1.0591E+00
0.67016	4.6095E+00	1.0686E+00
0.67156	4.6138E+00	1.0803E+00
0.67296	4.6201E+00	1.0909E+00
0.67436	4.6275E+00	1.1004E+00
0.67576	4.6360E+00	1.1088E+00
0.67716	4.6444E+00	1.1152E+00
0.67856	4.6571E+00	1.1205E+00
0.67996	4.6720E+00	1.1237E+00
0.68136	4.6878E+00	1.1258E+00
0.68276	4.7016E+00	1.1226E+00
0.68416	4.7175E+00	1.1173E+00
0.68556	4.7354E+00	1.1110E+00
0.68696	4.7545E+00	1.1036E+00
0.68837	4.7735E+00	1.0930E+00
0.68977	4.7915E+00	1.0824E+00
0.69117	4.8095E+00	1.0686E+00
0.69258	4.8254E+00	1.0528E+00
0.69398	4.8434E+00	1.0348E+00
0.69539	4.8614E+00	1.0168E+00
0.69679	4.8783E+00	1.0009E+00
0.69820	4.8942E+00	9.8503E-01
0.69960	4.9090E+00	9.6916E-01
0.70101	4.9206E+00	9.5117E-01
0.70242	4.9312E+00	9.3318E-01
0.70382	4.9418E+00	9.1413E-01
0.70523	4.9503E+00	8.9720E-01
0.70664	4.9566E+00	8.8027E-01
0.70805	4.9619E+00	8.6440E-01
0.70946	4.9640E+00	8.4747E-01
0.71086	4.9640E+00	8.3159E-01
0.71227	4.9619E+00	8.1572E-01
0.71368	4.9587E+00	7.9985E-01
0.71509	4.9545E+00	7.8398E-01
0.71650	4.9513E+00	7.6810E-01
0.71792	4.9450E+00	7.5223E-01
0.71933	4.9397E+00	7.3636E-01
0.72074	4.9344E+00	7.2048E-01
0.72215	4.9280E+00	7.0567E-01
0.72356	4.9238E+00	6.9191E-01
0.72498	4.9206E+00	6.7816E-01
0.72639	4.9143E+00	6.6228E-01
0.72780	4.9069E+00	6.4853E-01
0.72922	4.9005E+00	6.3583E-01
0.73063	4.8931E+00	6.2419E-01
0.73205	4.8868E+00	6.1572E-01
0.73346	4.8804E+00	6.0726E-01
0.73488	4.8730E+00	5.9879E-01
0.73629	4.8624E+00	5.9032E-01
0.73771	4.8487E+00	5.8292E-01
0.73913	4.8370E+00	5.7763E-01
0.74054	4.8286E+00	5.7339E-01
0.74196	4.8190E+00	5.7128E-01
0.74338	4.8106E+00	5.7128E-01
0.74480	4.8042E+00	5.7128E-01
0.74621	4.7979E+00	5.7022E-01
0.74763	4.7894E+00	5.7022E-01
0.74905	4.7810E+00	5.7022E-01
0.75047	4.7746E+00	5.7128E-01
0.75189	4.7672E+00	5.7128E-01
0.75331	4.7598E+00	5.7128E-01
0.75473	4.7503E+00	5.7445E-01
0.75615	4.7439E+00	5.7974E-01
0.75757	4.7376E+00	5.8398E-01
0.75900	4.7280E+00	5.8821E-01
0.76042	4.7164E+00	5.9138E-01
0.76184	4.7048E+00	5.9773E-01
0.76326	4.6942E+00	6.0408E-01
0.76469	4.6857E+00	6.1361E-01
0.76611	4.6783E+00	6.2525E-01
0.76753	4.6698E+00	6.3794E-01
0.76896	4.6688E+00	6.5170E-01
0.77038	4.6677E+00	6.7075E-01
0.77181	4.6635E+00	6.9085E-01
0.77323	4.6603E+00	7.1308E-01
0.77466	4.6624E+00	7.3424E-01
0.77609	4.6656E+00	7.5752E-01
0.77751	4.6698E+00	7.8080E-01
0.77894	4.6762E+00	8.0196E-01
0.78037	4.6878E+00	8.2313E-01
0.78179	4.7026E+00	8.4112E-01
0.78322	4.7153E+00	8.5699E-01
0.78465	4.7280E+00	8.6757E-01
0.78608	4.7450E+00	8.7498E-01
0.78751	4.7651E+00	8.7604E-01
0.78894	4.7873E+00	8.6969E-01
0.79037	4.8074E+00	8.5593E-01
0.79179	4.8307E+00	8.3583E-01
0.79323	4.8561E+00	8.1361E-01
0.79466	4.8847E+00	7.9032E-01
0.79609	4.9132E+00	7.6281E-01
0.79752	4.9439E+00	7.2789E-01
0.79895	4.9767E+00	6.8874E-01
0.80038	5.0085E+00	6.5276E-01
0.80181	5.0381E+00	6.1466E-01
0.80325	5.0667E+00	5.7657E-01
0.80468	5.0931E+00	5.3925E-01
0.80611	5.1143E+00	5.0264E-01
0.80755	5.1270E+00	4.6552E-01
0.80898	5.1365E+00	4.2957E-01
0.81042	5.1481E+00	3.9489E-01
0.81185	5.1587E+00	3.6398E-01
0.81329	5.1587E+00	3.3308E-01
0.81472	5.1556E+00	3.0232E-01
0.81616	5.1524E+00	2.7400E-01
0.81759	5.1471E+00	2.4848E-01
0.81903	5.1439E+00	2.2680E-01
0.82047	5.1429E+00	2.0637E-01
0.82190	5.1397E+00	1.8784E-01
0.82334	5.1397E+00	1.6856E-01
0.82478	5.1376E+00	1.4945E-01
0.82622	5.1249E+00	1.3287E-01
0.82765	5.1111E+00	1.2138E-01
0.82909	5.1090E+00	1.1087E-01
0.83053	5.1101E+00	9.7831E-02
0.83197	5.1037E+00	8.6744E-02
0.83341	5.0868E+00	7.8959E-02
0.83485	5.0593E+00	7.0502E-02
0.83629	5.0402E+00	5.8540E-02
0.83773	5.0233E+00	4.8745E-02
0.83917	5.0074E+00	4.6886E-02
0.84062	4.9905E+00	4.4330E-02
0.84206	4.9841E+00	3.6935E-02
0.84350	4.9757E+00	2.9082E-02
0.84494	4.9683E+00	1.9271E-02
0.84638	4.9661E+00	1.1405E-02
0.84783	4.9661E+00	3.7374E-03
0.84927	4.9608E+00	1.0666E-03
0.85071	4.9481E+00	0.0000E+00
0.85216	4.9302E+00	0.0000E+00
0.85360	4.9101E+00	0.0000E+00
0.85505	4.8995E+00	0.0000E+00
0.85649	4.8942E+00	0.0000E+00
