Material: main / MoSe2 / Hsu-2L
Optical constants. C. Hsu, R. Frisenda, R. Schmidt, A. Arora, S. M. de Vasconcellos, R. Bratschitsch, H. S. J. van der Zant, A. Castellanos-Gomez. Thickness-dependent refractive index of 1L, 2L, and 3L MoS2, MoSe2, WS2, and WSe2, Adv. Optical Mater. 7, 1900239 (2019) (Numerical data kindly provided by Andres Castellanos-Gomez)
Comments: 2-layer (2L)
Specs: {"n_absolute": true, "wavelength_vacuum": true, "film_thickness": "2L"}
wavelength (um)	n	k
0.39697	3.8095E+00	2.9315E+00
0.39827	3.9744E+00	2.5300E+00
0.39958	3.8942E+00	2.4286E+00
0.40088	3.8243E+00	2.3863E+00
0.40219	3.8116E+00	2.3719E+00
0.40349	3.8042E+00	2.3609E+00
0.40480	3.7873E+00	2.3431E+00
0.40610	3.7661E+00	2.3245E+00
0.40741	3.7619E+00	2.3118E+00
0.40872	3.7683E+00	2.3076E+00
0.41002	3.7788E+00	2.3033E+00
0.41133	3.7778E+00	2.2957E+00
0.41264	3.7683E+00	2.2839E+00
0.41395	3.7534E+00	2.2627E+00
0.41526	3.7397E+00	2.2432E+00
0.41657	3.7206E+00	2.2255E+00
0.41788	3.7016E+00	2.2119E+00
0.41919	3.6815E+00	2.1984E+00
0.42051	3.6614E+00	2.1908E+00
0.42182	3.6444E+00	2.1823E+00
0.42313	3.6317E+00	2.1730E+00
0.42444	3.6233E+00	2.1662E+00
0.42576	3.6148E+00	2.1645E+00
0.42707	3.6106E+00	2.1679E+00
0.42839	3.6159E+00	2.1755E+00
0.42970	3.6265E+00	2.1857E+00
0.43102	3.6392E+00	2.1984E+00
0.43234	3.6593E+00	2.2111E+00
0.43365	3.6836E+00	2.2212E+00
0.43497	3.7132E+00	2.2305E+00
0.43629	3.7481E+00	2.2424E+00
0.43761	3.7852E+00	2.2542E+00
0.43893	3.8265E+00	2.2669E+00
0.44025	3.8730E+00	2.2813E+00
0.44157	3.9143E+00	2.2957E+00
0.44289	3.9556E+00	2.3093E+00
0.44421	4.0000E+00	2.3237E+00
0.44553	4.0455E+00	2.3381E+00
0.44685	4.0889E+00	2.3541E+00
0.44818	4.1270E+00	2.3702E+00
0.44950	4.1630E+00	2.3863E+00
0.45082	4.1968E+00	2.3999E+00
0.45215	4.2296E+00	2.4142E+00
0.45347	4.2614E+00	2.4278E+00
0.45480	4.2910E+00	2.4396E+00
0.45612	4.3196E+00	2.4515E+00
0.45745	4.3418E+00	2.4608E+00
0.45878	4.3640E+00	2.4693E+00
0.46011	4.3820E+00	2.4752E+00
0.46143	4.4000E+00	2.4777E+00
0.46276	4.4180E+00	2.4803E+00
0.46409	4.4360E+00	2.4837E+00
0.46542	4.4508E+00	2.4845E+00
0.46675	4.4635E+00	2.4837E+00
0.46808	4.4772E+00	2.4828E+00
0.46941	4.4889E+00	2.4803E+00
0.47074	4.4995E+00	2.4760E+00
0.47207	4.5111E+00	2.4718E+00
0.47341	4.5228E+00	2.4667E+00
0.47474	4.5354E+00	2.4625E+00
0.47607	4.5481E+00	2.4591E+00
0.47741	4.5587E+00	2.4532E+00
0.47874	4.5704E+00	2.4481E+00
0.48008	4.5820E+00	2.4439E+00
0.48141	4.5958E+00	2.4413E+00
0.48275	4.6063E+00	2.4371E+00
0.48408	4.6169E+00	2.4329E+00
0.48542	4.6286E+00	2.4278E+00
0.48676	4.6423E+00	2.4253E+00
0.48810	4.6561E+00	2.4227E+00
0.48943	4.6709E+00	2.4219E+00
0.49077	4.6836E+00	2.4185E+00
0.49211	4.6963E+00	2.4151E+00
0.49345	4.7111E+00	2.4126E+00
0.49479	4.7238E+00	2.4083E+00
0.49613	4.7365E+00	2.4041E+00
0.49748	4.7534E+00	2.4015E+00
0.49882	4.7704E+00	2.3982E+00
0.50016	4.7862E+00	2.3939E+00
0.50150	4.8021E+00	2.3889E+00
0.50285	4.8159E+00	2.3829E+00
0.50419	4.8328E+00	2.3778E+00
0.50553	4.8476E+00	2.3719E+00
0.50688	4.8603E+00	2.3643E+00
0.50822	4.8741E+00	2.3558E+00
0.50957	4.8889E+00	2.3482E+00
0.51092	4.9026E+00	2.3398E+00
0.51226	4.9153E+00	2.3304E+00
0.51361	4.9270E+00	2.3211E+00
0.51496	4.9365E+00	2.3110E+00
0.51630	4.9460E+00	2.2991E+00
0.51765	4.9556E+00	2.2873E+00
0.51900	4.9640E+00	2.2746E+00
0.52035	4.9693E+00	2.2610E+00
0.52170	4.9757E+00	2.2483E+00
0.52305	4.9788E+00	2.2356E+00
0.52440	4.9810E+00	2.2221E+00
0.52575	4.9820E+00	2.2085E+00
0.52711	4.9841E+00	2.1950E+00
0.52846	4.9841E+00	2.1806E+00
0.52981	4.9820E+00	2.1654E+00
0.53117	4.9799E+00	2.1493E+00
0.53252	4.9799E+00	2.1349E+00
0.53387	4.9810E+00	2.1196E+00
0.53523	4.9841E+00	2.1053E+00
0.53658	4.9873E+00	2.0900E+00
0.53794	4.9915E+00	2.0739E+00
0.53930	4.9958E+00	2.0562E+00
0.54065	5.0021E+00	2.0384E+00
0.54201	5.0116E+00	2.0198E+00
0.54337	5.0222E+00	1.9994E+00
0.54472	5.0328E+00	1.9783E+00
0.54608	5.0444E+00	1.9554E+00
0.54744	5.0561E+00	1.9309E+00
0.54880	5.0709E+00	1.9055E+00
0.55016	5.0868E+00	1.8801E+00
0.55152	5.1016E+00	1.8530E+00
0.55288	5.1153E+00	1.8233E+00
0.55424	5.1323E+00	1.7946E+00
0.55560	5.1471E+00	1.7624E+00
0.55697	5.1640E+00	1.7311E+00
0.55833	5.1788E+00	1.6981E+00
0.55969	5.1905E+00	1.6617E+00
0.56106	5.2000E+00	1.6236E+00
0.56242	5.2116E+00	1.5889E+00
0.56378	5.2212E+00	1.5541E+00
0.56515	5.2286E+00	1.5194E+00
0.56651	5.2328E+00	1.4830E+00
0.56788	5.2339E+00	1.4458E+00
0.56925	5.2317E+00	1.4077E+00
0.57061	5.2265E+00	1.3713E+00
0.57198	5.2201E+00	1.3383E+00
0.57335	5.2095E+00	1.3069E+00
0.57472	5.1958E+00	1.2748E+00
0.57609	5.1799E+00	1.2468E+00
0.57745	5.1619E+00	1.2206E+00
0.57882	5.1397E+00	1.1969E+00
0.58019	5.1153E+00	1.1757E+00
0.58156	5.0889E+00	1.1571E+00
0.58293	5.0624E+00	1.1427E+00
0.58431	5.0339E+00	1.1309E+00
0.58568	5.0063E+00	1.1215E+00
0.58705	4.9799E+00	1.1131E+00
0.58842	4.9556E+00	1.1072E+00
0.58979	4.9312E+00	1.1038E+00
0.59117	4.9090E+00	1.1012E+00
0.59254	4.8878E+00	1.0995E+00
0.59392	4.8677E+00	1.0995E+00
0.59529	4.8497E+00	1.0995E+00
0.59667	4.8349E+00	1.0995E+00
0.59804	4.8222E+00	1.0995E+00
0.59942	4.8116E+00	1.1004E+00
0.60079	4.8021E+00	1.1012E+00
0.60217	4.7926E+00	1.1004E+00
0.60355	4.7862E+00	1.1004E+00
0.60493	4.7810E+00	1.0995E+00
0.60630	4.7778E+00	1.0995E+00
0.60768	4.7746E+00	1.0978E+00
0.60906	4.7735E+00	1.0953E+00
0.61044	4.7735E+00	1.0936E+00
0.61182	4.7704E+00	1.0936E+00
0.61320	4.7672E+00	1.0911E+00
0.61458	4.7661E+00	1.0885E+00
0.61596	4.7661E+00	1.0860E+00
0.61735	4.7661E+00	1.0835E+00
0.61873	4.7661E+00	1.0784E+00
0.62011	4.7661E+00	1.0758E+00
0.62149	4.7661E+00	1.0724E+00
0.62288	4.7661E+00	1.0682E+00
0.62426	4.7661E+00	1.0640E+00
0.62565	4.7661E+00	1.0614E+00
0.62703	4.7661E+00	1.0589E+00
0.62842	4.7651E+00	1.0547E+00
0.62980	4.7651E+00	1.0513E+00
0.63119	4.7661E+00	1.0487E+00
0.63257	4.7630E+00	1.0462E+00
0.63396	4.7598E+00	1.0437E+00
0.63535	4.7577E+00	1.0428E+00
0.63673	4.7577E+00	1.0420E+00
0.63812	4.7577E+00	1.0394E+00
0.63951	4.7577E+00	1.0344E+00
0.64090	4.7566E+00	1.0318E+00
0.64229	4.7534E+00	1.0310E+00
0.64368	4.7513E+00	1.0301E+00
0.64507	4.7492E+00	1.0293E+00
0.64646	4.7460E+00	1.0293E+00
0.64785	4.7429E+00	1.0293E+00
0.64924	4.7418E+00	1.0301E+00
0.65063	4.7418E+00	1.0301E+00
0.65203	4.7418E+00	1.0301E+00
0.65342	4.7418E+00	1.0301E+00
0.65481	4.7386E+00	1.0327E+00
0.65621	4.7354E+00	1.0352E+00
0.65760	4.7333E+00	1.0377E+00
0.65899	4.7302E+00	1.0420E+00
0.66039	4.7270E+00	1.0487E+00
0.66178	4.7259E+00	1.0538E+00
0.66318	4.7259E+00	1.0606E+00
0.66458	4.7228E+00	1.0691E+00
0.66597	4.7196E+00	1.0784E+00
0.66737	4.7185E+00	1.0877E+00
0.66877	4.7185E+00	1.0987E+00
0.67016	4.7185E+00	1.1114E+00
0.67156	4.7185E+00	1.1249E+00
0.67296	4.7185E+00	1.1393E+00
0.67436	4.7217E+00	1.1546E+00
0.67576	4.7249E+00	1.1723E+00
0.67716	4.7291E+00	1.1901E+00
0.67856	4.7344E+00	1.2096E+00
0.67996	4.7407E+00	1.2282E+00
0.68136	4.7460E+00	1.2477E+00
0.68276	4.7524E+00	1.2663E+00
0.68416	4.7598E+00	1.2849E+00
0.68556	4.7661E+00	1.3027E+00
0.68696	4.7746E+00	1.3196E+00
0.68837	4.7831E+00	1.3366E+00
0.68977	4.7915E+00	1.3518E+00
0.69117	4.7989E+00	1.3654E+00
0.69258	4.8074E+00	1.3772E+00
0.69398	4.8138E+00	1.3865E+00
0.69539	4.8222E+00	1.3933E+00
0.69679	4.8307E+00	1.3958E+00
0.69820	4.8381E+00	1.3950E+00
0.69960	4.8455E+00	1.3899E+00
0.70101	4.8550E+00	1.3814E+00
0.70242	4.8624E+00	1.3687E+00
0.70382	4.8709E+00	1.3518E+00
0.70523	4.8783E+00	1.3315E+00
0.70664	4.8868E+00	1.3086E+00
0.70805	4.8952E+00	1.2824E+00
0.70946	4.9037E+00	1.2528E+00
0.71086	4.9132E+00	1.2231E+00
0.71227	4.9228E+00	1.1901E+00
0.71368	4.9323E+00	1.1554E+00
0.71509	4.9407E+00	1.1224E+00
0.71650	4.9503E+00	1.0894E+00
0.71792	4.9598E+00	1.0521E+00
0.71933	4.9683E+00	1.0166E+00
0.72074	4.9778E+00	9.8356E-01
0.72215	4.9873E+00	9.5224E-01
0.72356	4.9958E+00	9.1922E-01
0.72498	5.0021E+00	8.8959E-01
0.72639	5.0095E+00	8.5912E-01
0.72780	5.0169E+00	8.3033E-01
0.72922	5.0233E+00	8.0324E-01
0.73063	5.0296E+00	7.7700E-01
0.73205	5.0349E+00	7.5330E-01
0.73346	5.0413E+00	7.3044E-01
0.73488	5.0466E+00	7.1097E-01
0.73629	5.0508E+00	6.9150E-01
0.73771	5.0561E+00	6.7287E-01
0.73913	5.0614E+00	6.5594E-01
0.74054	5.0646E+00	6.4070E-01
0.74196	5.0677E+00	6.2716E-01
0.74338	5.0709E+00	6.1531E-01
0.74480	5.0741E+00	6.0684E-01
0.74621	5.0751E+00	5.9837E-01
0.74763	5.0762E+00	5.8906E-01
0.74905	5.0762E+00	5.8144E-01
0.75047	5.0772E+00	5.7552E-01
0.75189	5.0762E+00	5.7552E-01
0.75331	5.0751E+00	5.7806E-01
0.75473	5.0741E+00	5.7890E-01
0.75615	5.0709E+00	5.8060E-01
0.75757	5.0677E+00	5.8398E-01
0.75900	5.0677E+00	5.8991E-01
0.76042	5.0656E+00	5.9584E-01
0.76184	5.0624E+00	6.0515E-01
0.76326	5.0582E+00	6.1869E-01
0.76469	5.0550E+00	6.3393E-01
0.76611	5.0519E+00	6.4917E-01
0.76753	5.0519E+00	6.6695E-01
0.76896	5.0529E+00	6.8811E-01
0.77038	5.0561E+00	7.1097E-01
0.77181	5.0582E+00	7.3721E-01
0.77323	5.0593E+00	7.6430E-01
0.77466	5.0624E+00	7.9224E-01
0.77609	5.0677E+00	8.2441E-01
0.77751	5.0762E+00	8.5996E-01
0.77894	5.0836E+00	8.9806E-01
0.78037	5.0910E+00	9.4208E-01
0.78179	5.0995E+00	9.9118E-01
0.78322	5.1101E+00	1.0445E+00
0.78465	5.1217E+00	1.0970E+00
0.78608	5.1333E+00	1.1537E+00
0.78751	5.1492E+00	1.2113E+00
0.78894	5.1704E+00	1.2689E+00
0.79037	5.1915E+00	1.3188E+00
0.79179	5.2095E+00	1.3671E+00
0.79323	5.2307E+00	1.4204E+00
0.79466	5.2519E+00	1.4712E+00
0.79609	5.2741E+00	1.5025E+00
0.79752	5.2942E+00	1.5245E+00
0.79895	5.3132E+00	1.5389E+00
0.80038	5.3323E+00	1.5423E+00
0.80181	5.3513E+00	1.5296E+00
0.80325	5.3661E+00	1.5076E+00
0.80468	5.3778E+00	1.4763E+00
0.80611	5.3831E+00	1.4399E+00
0.80755	5.3862E+00	1.3831E+00
0.80898	5.3894E+00	1.3154E+00
0.81042	5.3884E+00	1.2612E+00
0.81185	5.3810E+00	1.2172E+00
0.81329	5.3735E+00	1.1588E+00
0.81472	5.3651E+00	1.0987E+00
0.81616	5.3534E+00	1.0521E+00
0.81759	5.3386E+00	1.0140E+00
0.81903	5.3280E+00	9.5224E-01
0.82047	5.3228E+00	8.8705E-01
0.82190	5.3228E+00	8.2187E-01
0.82334	5.3238E+00	7.6261E-01
0.82478	5.3259E+00	6.9742E-01
0.82622	5.3238E+00	6.5425E-01
0.82765	5.3185E+00	6.1615E-01
0.82909	5.3090E+00	6.0007E-01
0.83053	5.3153E+00	5.4843E-01
0.83197	5.3037E+00	5.6282E-01
0.83341	5.2804E+00	6.0769E-01
0.83485	5.2487E+00	6.6864E-01
0.83629	5.2360E+00	6.5679E-01
0.83773	5.2317E+00	6.1446E-01
0.83917	5.2317E+00	5.7806E-01
0.84062	5.2169E+00	6.2039E-01
0.84206	5.2317E+00	5.8490E-01
0.84350	5.2720E+00	4.4647E-01
0.84494	5.2889E+00	3.8046E-01
0.84638	5.2942E+00	3.4696E-01
0.84783	5.3397E+00	2.1372E-01
0.84927	5.3566E+00	6.0339E-02
0.85071	5.1418E+00	4.3810E-01
0.85216	5.0190E+00	9.6000E-01
0.85360	5.0741E+00	1.5556E+00
0.85505	5.0741E+00	1.6792E+00
0.85649	5.1333E+00	1.4548E+00
