Material: organic / C2H3N - acetonitrile / Myers
Optical constants. T. L. Myers, R. G. Tonkyn, T. O. Danby, M. S. Taubman, B. E. Bernacki, J. C. Birnbaum, S. W. Sharpe, T. J. Johnson. Accurate measurement of the optical constants n and k for a series of 57 inorganic and organic liquids for optical modeling and detection, Appl. Spectrosc. 72, 535-550 (2018) (see Supplemental Material for numerical data)
Comments: 26 Â°C
Specs: {"n_absolute": true, "wavelength_vacuum": true, "temperature": "26 Â°C"}
wavelength (um)	n	k
1.28246E+00	1.33380E+00	4.87369E-06
1.28556E+00	1.33381E+00	4.99893E-06
1.28868E+00	1.33381E+00	5.25751E-06
1.29181E+00	1.33380E+00	5.33597E-06
1.29495E+00	1.33380E+00	5.53607E-06
1.29812E+00	1.33380E+00	5.82576E-06
1.30129E+00	1.33380E+00	6.08697E-06
1.30448E+00	1.33380E+00	6.21913E-06
1.30769E+00	1.33380E+00	6.26799E-06
1.31091E+00	1.33380E+00	6.24299E-06
1.31415E+00	1.33380E+00	6.26691E-06
1.31741E+00	1.33380E+00	6.22517E-06
1.32068E+00	1.33380E+00	6.12923E-06
1.32397E+00	1.33380E+00	6.01435E-06
1.32727E+00	1.33380E+00	5.95635E-06
1.33059E+00	1.33379E+00	5.92413E-06
1.33393E+00	1.33379E+00	5.89347E-06
1.33728E+00	1.33379E+00	6.02169E-06
1.34066E+00	1.33379E+00	6.40940E-06
1.34404E+00	1.33379E+00	7.29349E-06
1.34745E+00	1.33379E+00	8.40464E-06
1.35087E+00	1.33379E+00	7.80974E-06
1.35431E+00	1.33379E+00	8.12385E-06
1.35777E+00	1.33379E+00	7.90210E-06
1.36124E+00	1.33379E+00	6.71967E-06
1.36474E+00	1.33378E+00	7.60652E-06
1.36825E+00	1.33378E+00	1.04772E-05
1.37178E+00	1.33378E+00	1.14521E-05
1.37533E+00	1.33378E+00	1.16853E-05
1.37889E+00	1.33378E+00	1.04379E-05
1.38248E+00	1.33378E+00	1.06340E-05
1.38608E+00	1.33378E+00	1.35535E-05
1.38970E+00	1.33378E+00	1.27039E-05
1.39334E+00	1.33378E+00	8.55162E-06
1.39700E+00	1.33378E+00	6.07446E-06
1.40068E+00	1.33378E+00	4.97695E-06
1.40438E+00	1.33378E+00	4.00011E-06
1.40810E+00	1.33378E+00	3.06257E-06
1.41184E+00	1.33377E+00	2.66627E-06
1.41559E+00	1.33377E+00	2.73854E-06
1.41937E+00	1.33377E+00	3.44809E-06
1.42317E+00	1.33377E+00	3.78759E-06
1.42699E+00	1.33377E+00	2.94178E-06
1.43083E+00	1.33376E+00	2.46380E-06
1.43469E+00	1.33376E+00	2.32955E-06
1.43857E+00	1.33376E+00	2.05045E-06
1.44247E+00	1.33376E+00	2.11567E-06
1.44639E+00	1.33376E+00	2.52731E-06
1.45034E+00	1.33375E+00	3.04817E-06
1.45430E+00	1.33375E+00	4.11366E-06
1.45829E+00	1.33375E+00	5.07790E-06
1.46230E+00	1.33375E+00	4.39384E-06
1.46633E+00	1.33375E+00	3.49184E-06
1.47039E+00	1.33375E+00	2.45418E-06
1.47446E+00	1.33375E+00	1.74817E-06
1.47856E+00	1.33374E+00	1.33825E-06
1.48269E+00	1.33374E+00	1.37773E-06
1.48683E+00	1.33374E+00	1.60348E-06
1.49100E+00	1.33374E+00	1.39743E-06
1.49519E+00	1.33374E+00	1.12834E-06
1.49941E+00	1.33373E+00	6.12460E-07
1.50365E+00	1.33373E+00	2.31750E-07
1.50791E+00	1.33373E+00	3.19990E-07
1.51220E+00	1.33373E+00	3.09810E-07
1.51651E+00	1.33372E+00	2.40940E-07
1.52085E+00	1.33372E+00	1.68180E-07
1.52521E+00	1.33372E+00	2.65570E-07
1.52959E+00	1.33372E+00	1.23680E-07
1.53401E+00	1.33372E+00	7.50200E-08
1.53844E+00	1.33371E+00	7.88500E-08
1.54291E+00	1.33371E+00	9.04600E-08
1.54740E+00	1.33371E+00	1.04570E-07
1.55191E+00	1.33371E+00	1.24620E-07
1.55645E+00	1.33370E+00	1.87300E-07
1.56102E+00	1.33370E+00	2.55640E-07
1.56562E+00	1.33370E+00	1.62440E-07
1.57024E+00	1.33369E+00	1.36770E-07
1.57489E+00	1.33369E+00	1.42480E-07
1.57957E+00	1.33369E+00	1.98720E-07
1.58427E+00	1.33368E+00	7.20120E-07
1.58901E+00	1.33368E+00	2.14946E-06
1.59377E+00	1.33368E+00	3.65942E-06
1.59856E+00	1.33368E+00	1.53473E-06
1.60338E+00	1.33367E+00	8.30170E-07
1.60823E+00	1.33367E+00	1.16431E-06
1.61310E+00	1.33366E+00	1.23770E-06
1.61801E+00	1.33366E+00	1.53637E-06
1.62295E+00	1.33365E+00	2.18146E-06
1.62792E+00	1.33365E+00	2.76834E-06
1.63292E+00	1.33364E+00	4.35243E-06
1.63794E+00	1.33364E+00	7.17089E-06
1.64300E+00	1.33363E+00	9.70517E-06
1.64810E+00	1.33363E+00	1.19527E-05
1.65322E+00	1.33362E+00	1.39338E-05
1.65837E+00	1.33361E+00	1.77285E-05
1.66356E+00	1.33359E+00	2.80292E-05
1.66878E+00	1.33359E+00	4.54631E-05
1.67403E+00	1.33356E+00	5.73622E-05
1.67932E+00	1.33361E+00	2.01481E-04
1.68464E+00	1.33370E+00	6.37358E-05
1.68999E+00	1.33365E+00	3.41846E-05
1.69538E+00	1.33363E+00	3.46791E-05
1.70080E+00	1.33360E+00	4.54540E-05
1.70626E+00	1.33358E+00	7.02434E-05
1.71175E+00	1.33358E+00	1.38329E-04
1.71728E+00	1.33367E+00	1.54101E-04
1.72284E+00	1.33370E+00	1.18605E-04
1.72844E+00	1.33371E+00	7.83119E-05
1.73408E+00	1.33370E+00	5.20170E-05
1.73975E+00	1.33368E+00	4.07905E-05
1.74546E+00	1.33367E+00	3.55294E-05
1.75121E+00	1.33366E+00	4.43802E-05
1.75699E+00	1.33367E+00	3.41912E-05
1.76282E+00	1.33367E+00	3.70789E-05
1.76868E+00	1.33367E+00	1.74064E-05
1.77458E+00	1.33365E+00	1.00893E-05
1.78052E+00	1.33364E+00	7.03652E-06
1.78650E+00	1.33363E+00	5.35571E-06
1.79252E+00	1.33362E+00	4.92896E-06
1.79859E+00	1.33362E+00	4.80918E-06
1.80469E+00	1.33361E+00	4.57406E-06
1.81083E+00	1.33360E+00	5.19535E-06
1.81702E+00	1.33359E+00	6.19747E-06
1.82325E+00	1.33359E+00	8.54348E-06
1.82952E+00	1.33358E+00	1.26854E-05
1.83584E+00	1.33358E+00	1.43152E-05
1.84220E+00	1.33357E+00	1.59533E-05
1.84860E+00	1.33357E+00	1.66534E-05
1.85505E+00	1.33356E+00	2.33692E-05
1.86154E+00	1.33357E+00	2.23788E-05
1.86808E+00	1.33356E+00	1.68811E-05
1.87466E+00	1.33355E+00	1.67087E-05
1.88130E+00	1.33354E+00	1.87555E-05
1.88797E+00	1.33353E+00	2.42568E-05
1.89470E+00	1.33353E+00	3.10913E-05
1.90147E+00	1.33353E+00	4.66829E-05
1.90830E+00	1.33355E+00	3.82723E-05
1.91517E+00	1.33353E+00	2.48192E-05
1.92209E+00	1.33349E+00	5.08801E-05
1.92906E+00	1.33357E+00	3.85874E-05
1.93609E+00	1.33354E+00	1.44350E-05
1.94316E+00	1.33353E+00	1.12896E-05
1.95029E+00	1.33352E+00	9.80768E-06
1.95746E+00	1.33351E+00	1.04484E-05
1.96469E+00	1.33350E+00	1.34176E-05
1.97198E+00	1.33349E+00	1.89797E-05
1.97932E+00	1.33349E+00	1.75629E-05
1.98671E+00	1.33348E+00	1.26071E-05
1.99416E+00	1.33346E+00	1.63009E-05
2.00167E+00	1.33347E+00	3.64890E-05
2.00923E+00	1.33347E+00	1.74482E-05
2.01685E+00	1.33346E+00	1.24528E-05
2.02453E+00	1.33345E+00	1.09982E-05
2.03226E+00	1.33344E+00	5.69384E-06
2.04006E+00	1.33343E+00	4.17856E-06
2.04792E+00	1.33342E+00	3.76430E-06
2.05583E+00	1.33341E+00	3.64139E-06
2.06381E+00	1.33340E+00	3.97193E-06
2.07185E+00	1.33338E+00	5.08019E-06
2.07995E+00	1.33337E+00	7.14181E-06
2.08812E+00	1.33336E+00	1.08128E-05
2.09635E+00	1.33335E+00	1.26765E-05
2.10465E+00	1.33334E+00	1.18757E-05
2.11301E+00	1.33333E+00	1.15132E-05
2.12144E+00	1.33331E+00	1.22728E-05
2.12993E+00	1.33330E+00	1.35069E-05
2.13850E+00	1.33328E+00	1.40727E-05
2.14713E+00	1.33326E+00	1.61852E-05
2.15583E+00	1.33324E+00	1.86671E-05
2.16461E+00	1.33321E+00	2.14030E-05
2.17346E+00	1.33319E+00	2.56952E-05
2.18237E+00	1.33315E+00	3.34422E-05
2.19137E+00	1.33312E+00	4.40423E-05
2.20043E+00	1.33307E+00	5.49897E-05
2.20958E+00	1.33302E+00	7.60738E-05
2.21879E+00	1.33294E+00	1.15552E-04
2.22809E+00	1.33286E+00	1.97400E-04
2.23746E+00	1.33276E+00	3.17075E-04
2.24692E+00	1.33267E+00	6.73830E-04
2.25645E+00	1.33332E+00	8.41752E-04
2.26606E+00	1.33314E+00	5.21544E-04
2.27576E+00	1.33322E+00	8.03557E-04
2.28554E+00	1.33327E+00	9.06071E-04
2.29541E+00	1.33389E+00	8.18527E-04
2.30536E+00	1.33381E+00	3.85573E-04
2.31539E+00	1.33375E+00	3.64464E-04
2.32552E+00	1.33369E+00	1.79198E-04
2.33573E+00	1.33360E+00	1.23785E-04
2.34603E+00	1.33353E+00	9.61143E-05
2.35643E+00	1.33347E+00	8.12212E-05
2.36692E+00	1.33342E+00	7.54680E-05
2.37750E+00	1.33337E+00	7.62154E-05
2.38817E+00	1.33333E+00	7.65575E-05
2.39895E+00	1.33330E+00	8.75449E-05
2.40982E+00	1.33327E+00	9.45157E-05
2.42078E+00	1.33323E+00	1.02216E-04
2.43185E+00	1.33319E+00	1.23873E-04
2.44302E+00	1.33316E+00	1.49537E-04
2.45430E+00	1.33312E+00	2.09752E-04
2.46568E+00	1.33311E+00	2.43764E-04
2.47716E+00	1.33307E+00	4.19734E-04
2.48875E+00	1.33338E+00	3.60773E-04
2.50046E+00	1.33329E+00	2.26573E-04
2.51227E+00	1.33321E+00	3.72353E-04
2.52419E+00	1.33344E+00	2.59599E-04
2.53623E+00	1.33336E+00	1.52729E-04
2.54838E+00	1.33331E+00	1.37920E-04
2.56065E+00	1.33330E+00	1.14404E-04
2.57304E+00	1.33327E+00	7.76406E-05
2.58555E+00	1.33323E+00	6.49402E-05
2.59818E+00	1.33320E+00	4.96494E-05
2.61094E+00	1.33316E+00	3.73422E-05
2.62382E+00	1.33312E+00	3.08451E-05
2.63683E+00	1.33308E+00	2.76374E-05
2.64997E+00	1.33304E+00	2.73515E-05
2.66324E+00	1.33301E+00	2.71227E-05
2.67664E+00	1.33296E+00	2.85981E-05
2.69018E+00	1.33291E+00	3.81707E-05
2.70386E+00	1.33287E+00	6.31030E-05
2.71767E+00	1.33282E+00	8.90475E-05
2.73163E+00	1.33279E+00	1.88313E-04
2.74573E+00	1.33286E+00	1.55165E-04
2.75998E+00	1.33280E+00	2.11798E-04
2.77438E+00	1.33289E+00	1.17014E-04
2.78893E+00	1.33281E+00	8.37647E-05
2.80363E+00	1.33275E+00	8.70204E-05
2.81849E+00	1.33270E+00	1.14236E-04
2.83351E+00	1.33268E+00	1.06775E-04
2.84869E+00	1.33264E+00	9.43530E-05
2.86403E+00	1.33258E+00	8.82437E-05
2.87953E+00	1.33252E+00	9.24698E-05
2.89521E+00	1.33246E+00	1.03222E-04
2.91106E+00	1.33240E+00	1.19145E-04
2.92708E+00	1.33233E+00	1.40293E-04
2.94328E+00	1.33226E+00	1.81268E-04
2.95966E+00	1.33223E+00	2.22437E-04
2.97622E+00	1.33217E+00	1.95438E-04
2.99297E+00	1.33205E+00	2.04229E-04
3.00991E+00	1.33200E+00	2.99079E-04
3.02704E+00	1.33187E+00	2.54702E-04
3.04437E+00	1.33175E+00	3.11168E-04
3.06189E+00	1.33159E+00	3.57859E-04
3.07963E+00	1.33140E+00	4.38627E-04
3.09756E+00	1.33113E+00	5.66580E-04
3.11571E+00	1.33073E+00	1.04000E-03
3.13407E+00	1.33110E+00	1.11000E-03
3.15265E+00	1.32987E+00	1.95000E-03
3.17145E+00	1.33243E+00	1.57000E-03
3.19047E+00	1.33160E+00	1.42000E-03
3.20973E+00	1.33131E+00	1.67000E-03
3.22922E+00	1.33120E+00	1.90000E-03
3.24895E+00	1.33109E+00	2.15000E-03
3.26892E+00	1.33092E+00	2.48000E-03
3.28913E+00	1.33064E+00	3.00000E-03
3.30960E+00	1.33028E+00	4.27000E-03
3.33033E+00	1.33264E+00	6.85000E-03
3.35131E+00	1.33456E+00	4.21000E-03
3.37256E+00	1.33371E+00	3.52000E-03
3.39409E+00	1.33356E+00	6.45000E-03
3.41589E+00	1.33628E+00	2.96000E-03
3.43797E+00	1.33568E+00	2.10000E-03
3.46034E+00	1.33534E+00	1.68000E-03
3.48300E+00	1.33511E+00	1.38000E-03
3.50596E+00	1.33490E+00	1.16000E-03
3.52923E+00	1.33485E+00	9.63103E-04
3.55280E+00	1.33460E+00	6.86123E-04
3.57670E+00	1.33436E+00	5.43928E-04
3.60092E+00	1.33414E+00	4.62635E-04
3.62546E+00	1.33397E+00	4.10436E-04
3.65035E+00	1.33379E+00	4.13697E-04
3.67558E+00	1.33374E+00	3.32437E-04
3.70115E+00	1.33354E+00	2.58275E-04
3.72709E+00	1.33332E+00	2.22261E-04
3.75340E+00	1.33319E+00	2.19098E-04
3.78007E+00	1.33281E+00	2.16386E-04
3.80713E+00	1.33320E+00	1.48000E-03
3.83458E+00	1.33331E+00	2.81409E-04
3.86243E+00	1.33295E+00	1.65581E-04
3.89069E+00	1.33268E+00	1.98188E-04
3.91936E+00	1.33252E+00	1.89159E-04
3.94846E+00	1.33228E+00	2.41079E-04
3.97800E+00	1.33205E+00	3.01605E-04
4.00797E+00	1.33185E+00	4.88793E-04
4.03841E+00	1.33179E+00	5.71170E-04
4.06931E+00	1.33154E+00	5.71582E-04
4.10069E+00	1.33122E+00	8.16066E-04
4.13255E+00	1.33098E+00	1.32000E-03
4.16491E+00	1.33180E+00	1.32000E-03
4.19779E+00	1.33129E+00	6.13950E-04
4.23118E+00	1.33043E+00	5.31657E-04
4.26512E+00	1.32942E+00	7.50925E-04
4.29960E+00	1.32811E+00	9.12710E-04
4.33464E+00	1.32397E+00	2.35000E-03
4.37026E+00	1.33271E+00	9.11000E-03
4.40647E+00	1.32348E+00	4.41000E-03
4.44329E+00	1.35756E+00	4.15300E-02
4.48072E+00	1.34584E+00	2.21000E-03
4.51879E+00	1.33988E+00	7.16123E-04
4.55752E+00	1.33821E+00	5.05380E-04
4.59691E+00	1.33682E+00	2.27645E-04
4.63699E+00	1.33597E+00	1.42845E-04
4.67778E+00	1.33536E+00	1.00624E-04
4.71929E+00	1.33487E+00	8.84764E-05
4.76154E+00	1.33446E+00	1.14559E-04
4.80455E+00	1.33405E+00	2.47342E-04
4.84835E+00	1.33424E+00	3.96304E-04
4.89296E+00	1.33396E+00	1.12636E-04
4.93840E+00	1.33366E+00	6.33303E-05
4.98468E+00	1.33340E+00	5.26778E-05
5.03184E+00	1.33317E+00	5.72143E-05
5.07991E+00	1.33295E+00	7.14198E-05
5.12890E+00	1.33274E+00	8.50728E-05
5.17884E+00	1.33252E+00	1.01762E-04
5.22977E+00	1.33230E+00	1.32830E-04
5.28171E+00	1.33207E+00	1.66399E-04
5.33469E+00	1.33185E+00	3.03307E-04
5.38874E+00	1.33162E+00	3.00170E-04
5.44390E+00	1.33139E+00	5.74101E-04
5.50020E+00	1.33160E+00	5.13660E-04
5.55768E+00	1.33128E+00	4.03139E-04
5.61637E+00	1.33103E+00	3.88693E-04
5.67631E+00	1.33070E+00	3.76771E-04
5.73755E+00	1.33046E+00	3.21689E-04
5.80013E+00	1.33001E+00	2.78531E-04
5.86408E+00	1.32953E+00	2.94931E-04
5.92946E+00	1.32898E+00	3.43148E-04
5.99631E+00	1.32834E+00	4.48696E-04
6.06469E+00	1.32759E+00	6.25471E-04
6.13465E+00	1.32678E+00	9.36823E-04
6.20624E+00	1.32577E+00	1.32000E-03
6.27952E+00	1.32465E+00	1.99000E-03
6.35455E+00	1.32338E+00	2.99000E-03
6.43139E+00	1.32226E+00	4.62000E-03
6.51012E+00	1.32148E+00	6.25000E-03
6.59080E+00	1.32063E+00	8.08000E-03
6.67350E+00	1.31936E+00	9.83000E-03
6.75831E+00	1.31617E+00	1.30900E-02
6.84530E+00	1.31319E+00	2.39500E-02
6.93455E+00	1.32781E+00	3.60400E-02
7.02617E+00	1.33643E+00	3.06400E-02
7.12023E+00	1.34371E+00	2.51900E-02
7.21686E+00	1.33716E+00	2.44500E-02
7.31613E+00	1.36608E+00	1.82200E-02
7.41818E+00	1.35465E+00	8.16000E-03
7.52312E+00	1.35058E+00	5.12000E-03
7.63107E+00	1.34798E+00	3.34000E-03
7.74216E+00	1.34591E+00	2.11000E-03
7.85653E+00	1.34415E+00	1.31000E-03
7.97433E+00	1.34258E+00	7.80138E-04
8.09572E+00	1.34120E+00	5.91335E-04
8.22086E+00	1.34011E+00	5.12561E-04
8.34993E+00	1.33909E+00	4.49899E-04
8.48312E+00	1.33808E+00	4.45361E-04
8.62063E+00	1.33700E+00	5.69127E-04
8.76267E+00	1.33587E+00	8.53318E-04
8.90946E+00	1.33458E+00	1.34000E-03
9.06126E+00	1.33312E+00	2.30000E-03
9.21832E+00	1.33146E+00	3.77000E-03
9.38092E+00	1.32870E+00	6.63000E-03
9.54937E+00	1.32428E+00	2.03600E-02
9.72397E+00	1.35365E+00	1.61600E-02
9.90507E+00	1.34797E+00	4.70000E-03
1.00930E+01	1.34451E+00	2.37000E-03
1.02883E+01	1.34213E+00	1.19000E-03
1.04913E+01	1.33950E+00	8.13771E-04
1.07024E+01	1.33471E+00	1.83000E-03
1.09222E+01	1.35738E+00	1.79900E-02
1.11512E+01	1.34540E+00	9.79877E-04
1.13900E+01	1.34249E+00	2.64894E-04
1.16393E+01	1.34109E+00	1.49886E-04
1.18997E+01	1.34012E+00	1.00849E-04
1.21721E+01	1.33923E+00	8.99090E-05
1.24572E+01	1.33819E+00	1.62838E-04
1.27560E+01	1.33663E+00	4.77573E-04
1.30694E+01	1.33311E+00	2.89000E-03
1.33987E+01	1.34295E+00	1.34400E-02
1.37450E+01	1.34453E+00	1.98000E-03
1.41097E+01	1.34195E+00	6.87149E-04
1.44942E+01	1.34083E+00	4.82933E-04
1.49003E+01	1.34012E+00	5.77779E-04
1.53298E+01	1.34024E+00	6.32798E-04
1.57848E+01	1.33984E+00	3.04362E-04
1.62676E+01	1.33947E+00	2.41161E-04
1.67809E+01	1.33917E+00	2.42648E-04
1.73276E+01	1.33892E+00	2.85169E-04
1.79112E+01	1.33868E+00	3.63908E-04
1.85354E+01	1.33851E+00	5.19453E-04
1.92048E+01	1.33838E+00	6.04580E-04
1.99242E+01	1.33825E+00	7.60417E-04
2.06997E+01	1.33814E+00	9.60153E-04
2.15380E+01	1.33807E+00	1.24000E-03
2.24471E+01	1.33813E+00	1.64000E-03
2.34363E+01	1.33842E+00	2.24000E-03
2.45167E+01	1.33960E+00	3.34000E-03
