Material: main / MoS2 / Ermolaev-1L
Optical constants. G. A. Ermolaev, Yu. V. Stebunov, A. A. Vyshnevyy, D. E. Tatarkin, D. I. Yakubovsky, S. M. Novikov, D. G. Baranov, T. Shegai, A. Y. Nikitin, A. V. Arsenin, V. S. Volkov. Broadband optical properties of monolayer and bulk MoS2, NPJ 2D Mater. Appl., 4, 21 (2020) (Numerical data kindly provided by Georgy Ermolaev)
Comments: Broadband optical constants of monolayer MoS2 on SiO2/Si substrate were measured by spectroscopic ellipsometry in the spectral range 290â€“3300 nm. Tauc-Lorentz oscillators were used in ellipsometry model to describe the optical response of excitons.
Specs: {"n_absolute": true, "wavelength_vacuum": true, "film_thickness": "1L", "substrate": "SiO2/Si"}
wavelength (um)	n	k
0.290	2.29091	3.21676E+00
0.298	2.57129	3.31579E+00
0.306	2.96505	3.35980E+00
0.314	3.51381	3.20598E+00
0.322	4.01071	2.53668E+00
0.330	3.69665	1.57662E+00
0.338	2.81159	1.37655E+00
0.346	2.32768	1.78919E+00
0.354	2.19083	2.17733E+00
0.362	2.18553	2.51746E+00
0.370	2.26263	2.82628E+00
0.378	2.40629	3.11160E+00
0.386	2.61519	3.37550E+00
0.394	2.89445	3.61085E+00
0.402	3.25054	3.79975E+00
0.410	3.68341	3.91126E+00
0.418	4.17483	3.90382E+00
0.426	4.67489	3.74008E+00
0.434	5.10467	3.41737E+00
0.442	5.39384	2.98596E+00
0.450	5.51886	2.52848E+00
0.458	5.50720	2.11604E+00
0.466	5.40717	1.78015E+00
0.474	5.26101	1.52564E+00
0.482	5.09750	1.34393E+00
0.490	4.93389	1.22315E+00
0.498	4.77973	1.15256E+00
0.506	4.64173	1.12417E+00
0.514	4.52443	1.13181E+00
0.522	4.43391	1.17041E+00
0.530	4.37718	1.23411E+00
0.538	4.36277	1.31385E+00
0.546	4.39848	1.39435E+00
0.554	4.48503	1.45203E+00
0.562	4.60802	1.46051E+00
0.570	4.73389	1.40346E+00
0.578	4.82004	1.29104E+00
0.586	4.83760	1.16355E+00
0.594	4.78838	1.07733E+00
0.602	4.71854	1.10052E+00
0.610	4.81253	1.26428E+00
0.618	5.19404	1.13856E+00
0.626	5.20255	7.49070E-01
0.634	5.03876	5.77290E-01
0.642	4.91051	5.33940E-01
0.650	4.84342	5.52030E-01
0.658	4.86678	6.01840E-01
0.666	5.04798	5.76300E-01
0.674	5.15229	2.26780E-01
0.682	4.89790	9.31000E-03
0.690	4.72833	7.50977E-04
0.698	4.62735	1.44650E-04
0.706	4.55133	1.96301E-07
0.714	4.48977	0.00000E+00
0.722	4.43745	0.00000E+00
0.730	4.39224	0.00000E+00
0.738	4.35201	0.00000E+00
0.746	4.31590	0.00000E+00
0.754	4.28315	0.00000E+00
0.762	4.25335	0.00000E+00
0.770	4.22588	0.00000E+00
0.778	4.20055	0.00000E+00
0.786	4.17694	0.00000E+00
0.794	4.15496	0.00000E+00
0.802	4.13442	0.00000E+00
0.810	4.11503	0.00000E+00
0.818	4.09690	0.00000E+00
0.826	4.07979	0.00000E+00
0.834	4.06360	0.00000E+00
0.842	4.04824	0.00000E+00
0.850	4.03373	0.00000E+00
0.858	4.01989	0.00000E+00
0.866	4.00669	0.00000E+00
0.874	3.99413	0.00000E+00
0.882	3.98219	0.00000E+00
0.890	3.97072	0.00000E+00
0.898	3.95985	0.00000E+00
0.906	3.94930	0.00000E+00
0.914	3.93927	0.00000E+00
0.922	3.92966	0.00000E+00
0.930	3.92043	0.00000E+00
0.938	3.91148	0.00000E+00
0.946	3.90294	0.00000E+00
0.954	3.89471	0.00000E+00
0.962	3.88677	0.00000E+00
0.970	3.87910	0.00000E+00
0.978	3.87176	0.00000E+00
0.986	3.86464	0.00000E+00
0.994	3.85775	0.00000E+00
1.002	3.85114	0.00000E+00
1.010	3.84471	0.00000E+00
1.018	3.83847	0.00000E+00
1.026	3.83245	0.00000E+00
1.034	3.82666	0.00000E+00
1.042	3.82101	0.00000E+00
1.050	3.81551	0.00000E+00
1.058	3.81025	0.00000E+00
1.066	3.80510	0.00000E+00
1.074	3.80008	0.00000E+00
1.082	3.79527	0.00000E+00
1.090	3.79055	0.00000E+00
1.098	3.78599	0.00000E+00
1.106	3.78151	0.00000E+00
1.114	3.77721	0.00000E+00
1.122	3.77299	0.00000E+00
1.130	3.76894	0.00000E+00
1.138	3.76496	0.00000E+00
1.146	3.76108	0.00000E+00
1.154	3.75731	0.00000E+00
1.162	3.75363	0.00000E+00
1.170	3.75005	0.00000E+00
1.178	3.74656	0.00000E+00
1.186	3.74316	0.00000E+00
1.194	3.73984	0.00000E+00
1.202	3.73660	0.00000E+00
1.210	3.73344	0.00000E+00
1.218	3.73034	0.00000E+00
1.226	3.72736	0.00000E+00
1.234	3.72440	0.00000E+00
1.242	3.72154	0.00000E+00
1.250	3.71874	0.00000E+00
1.258	3.71601	0.00000E+00
1.266	3.71333	0.00000E+00
1.274	3.71072	0.00000E+00
1.282	3.70816	0.00000E+00
1.290	3.70566	0.00000E+00
1.298	3.70321	0.00000E+00
1.306	3.70083	0.00000E+00
1.314	3.69848	0.00000E+00
1.322	3.69619	0.00000E+00
1.330	3.69395	0.00000E+00
1.338	3.69176	0.00000E+00
1.346	3.68961	0.00000E+00
1.354	3.68750	0.00000E+00
1.362	3.68544	0.00000E+00
1.370	3.68342	0.00000E+00
1.378	3.68145	0.00000E+00
1.386	3.67951	0.00000E+00
1.394	3.67761	0.00000E+00
1.402	3.67575	0.00000E+00
1.410	3.67392	0.00000E+00
1.418	3.67213	0.00000E+00
1.426	3.67037	0.00000E+00
1.434	3.66865	0.00000E+00
1.442	3.66696	0.00000E+00
1.450	3.66530	0.00000E+00
1.458	3.66368	0.00000E+00
1.466	3.66208	0.00000E+00
1.474	3.66051	0.00000E+00
1.482	3.65897	0.00000E+00
1.490	3.65747	0.00000E+00
1.498	3.65598	0.00000E+00
1.506	3.65453	0.00000E+00
1.514	3.65310	0.00000E+00
1.522	3.65169	0.00000E+00
1.530	3.65031	0.00000E+00
1.538	3.64895	0.00000E+00
1.546	3.64762	0.00000E+00
1.554	3.64631	0.00000E+00
1.562	3.64503	0.00000E+00
1.570	3.64376	0.00000E+00
1.578	3.64252	0.00000E+00
1.586	3.64129	0.00000E+00
1.594	3.64009	0.00000E+00
1.602	3.63891	0.00000E+00
1.610	3.63775	0.00000E+00
1.618	3.63660	0.00000E+00
1.626	3.63548	0.00000E+00
1.634	3.63437	0.00000E+00
1.642	3.63328	0.00000E+00
1.650	3.63221	0.00000E+00
1.658	3.63116	0.00000E+00
1.666	3.63012	0.00000E+00
1.674	3.62910	0.00000E+00
1.682	3.62809	0.00000E+00
1.690	3.62710	0.00000E+00
1.698	3.62613	0.00000E+00
1.706	3.62517	0.00000E+00
1.714	3.62423	0.00000E+00
1.722	3.62330	0.00000E+00
1.730	3.62238	0.00000E+00
1.738	3.62148	0.00000E+00
1.746	3.62059	0.00000E+00
1.754	3.61971	0.00000E+00
1.762	3.61885	0.00000E+00
1.770	3.61800	0.00000E+00
1.778	3.61717	0.00000E+00
1.786	3.61634	0.00000E+00
1.794	3.61553	0.00000E+00
1.802	3.61473	0.00000E+00
1.810	3.61394	0.00000E+00
1.818	3.61316	0.00000E+00
1.826	3.61239	0.00000E+00
1.834	3.61163	0.00000E+00
1.842	3.61089	0.00000E+00
1.850	3.61015	0.00000E+00
1.858	3.60943	0.00000E+00
1.866	3.60871	0.00000E+00
1.874	3.60800	0.00000E+00
1.882	3.60731	0.00000E+00
1.890	3.60662	0.00000E+00
1.898	3.60595	0.00000E+00
1.906	3.60528	0.00000E+00
1.914	3.60462	0.00000E+00
1.922	3.60397	0.00000E+00
1.930	3.60333	0.00000E+00
1.938	3.60270	0.00000E+00
1.946	3.60207	0.00000E+00
1.954	3.60145	0.00000E+00
1.962	3.60085	0.00000E+00
1.970	3.60025	0.00000E+00
1.978	3.59965	0.00000E+00
1.986	3.59907	0.00000E+00
1.994	3.59849	0.00000E+00
2.002	3.59792	0.00000E+00
2.010	3.59736	0.00000E+00
2.018	3.59680	0.00000E+00
2.026	3.59626	0.00000E+00
2.034	3.59571	0.00000E+00
2.042	3.59518	0.00000E+00
2.050	3.59465	0.00000E+00
2.058	3.59413	0.00000E+00
2.066	3.59361	0.00000E+00
2.074	3.59310	0.00000E+00
2.082	3.59260	0.00000E+00
2.090	3.59210	0.00000E+00
2.098	3.59161	0.00000E+00
2.106	3.59113	0.00000E+00
2.114	3.59065	0.00000E+00
2.122	3.59018	0.00000E+00
2.130	3.58971	0.00000E+00
2.138	3.58925	0.00000E+00
2.146	3.58879	0.00000E+00
2.154	3.58834	0.00000E+00
2.162	3.58789	0.00000E+00
2.170	3.58745	0.00000E+00
2.178	3.58702	0.00000E+00
2.186	3.58658	0.00000E+00
2.194	3.58616	0.00000E+00
2.202	3.58574	0.00000E+00
2.210	3.58532	0.00000E+00
2.218	3.58491	0.00000E+00
2.226	3.58451	0.00000E+00
2.234	3.58410	0.00000E+00
2.242	3.58371	0.00000E+00
2.250	3.58331	0.00000E+00
2.258	3.58292	0.00000E+00
2.266	3.58254	0.00000E+00
2.274	3.58216	0.00000E+00
2.282	3.58179	0.00000E+00
2.290	3.58141	0.00000E+00
2.298	3.58105	0.00000E+00
2.306	3.58068	0.00000E+00
2.314	3.58032	0.00000E+00
2.322	3.57997	0.00000E+00
2.330	3.57961	0.00000E+00
2.338	3.57927	0.00000E+00
2.346	3.57892	0.00000E+00
2.354	3.57858	0.00000E+00
2.362	3.57824	0.00000E+00
2.370	3.57791	0.00000E+00
2.378	3.57758	0.00000E+00
2.386	3.57725	0.00000E+00
2.394	3.57693	0.00000E+00
2.402	3.57661	0.00000E+00
2.410	3.57630	0.00000E+00
2.418	3.57598	0.00000E+00
2.426	3.57567	0.00000E+00
2.434	3.57537	0.00000E+00
2.442	3.57506	0.00000E+00
2.450	3.57476	0.00000E+00
2.458	3.57446	0.00000E+00
2.466	3.57417	0.00000E+00
2.474	3.57388	0.00000E+00
2.482	3.57359	0.00000E+00
2.490	3.57330	0.00000E+00
2.498	3.57302	0.00000E+00
2.506	3.57274	0.00000E+00
2.514	3.57246	0.00000E+00
2.522	3.57219	0.00000E+00
2.530	3.57192	0.00000E+00
2.538	3.57165	0.00000E+00
2.546	3.57138	0.00000E+00
2.554	3.57112	0.00000E+00
2.562	3.57086	0.00000E+00
2.570	3.57060	0.00000E+00
2.578	3.57034	0.00000E+00
2.586	3.57009	0.00000E+00
2.594	3.56984	0.00000E+00
2.602	3.56959	0.00000E+00
2.610	3.56934	0.00000E+00
2.618	3.56910	0.00000E+00
2.626	3.56886	0.00000E+00
2.634	3.56862	0.00000E+00
2.642	3.56838	0.00000E+00
2.650	3.56814	0.00000E+00
2.658	3.56791	0.00000E+00
2.666	3.56768	0.00000E+00
2.674	3.56745	0.00000E+00
2.682	3.56722	0.00000E+00
2.690	3.56700	0.00000E+00
2.698	3.56678	0.00000E+00
2.706	3.56656	0.00000E+00
2.714	3.56634	0.00000E+00
2.722	3.56612	0.00000E+00
2.730	3.56591	0.00000E+00
2.738	3.56570	0.00000E+00
2.746	3.56549	0.00000E+00
2.754	3.56528	0.00000E+00
2.762	3.56507	0.00000E+00
2.770	3.56487	0.00000E+00
2.778	3.56466	0.00000E+00
2.786	3.56446	0.00000E+00
2.794	3.56426	0.00000E+00
2.802	3.56406	0.00000E+00
2.810	3.56387	0.00000E+00
2.818	3.56367	0.00000E+00
2.826	3.56348	0.00000E+00
2.834	3.56329	0.00000E+00
2.842	3.56310	0.00000E+00
2.850	3.56291	0.00000E+00
2.858	3.56273	0.00000E+00
2.866	3.56254	0.00000E+00
2.874	3.56236	0.00000E+00
2.882	3.56218	0.00000E+00
2.890	3.56200	0.00000E+00
2.898	3.56182	0.00000E+00
2.906	3.56165	0.00000E+00
2.914	3.56147	0.00000E+00
2.922	3.56130	0.00000E+00
2.930	3.56112	0.00000E+00
2.938	3.56095	0.00000E+00
2.946	3.56078	0.00000E+00
2.954	3.56062	0.00000E+00
2.962	3.56045	0.00000E+00
2.970	3.56028	0.00000E+00
2.978	3.56012	0.00000E+00
2.986	3.55996	0.00000E+00
2.994	3.55980	0.00000E+00
3.002	3.55964	0.00000E+00
3.010	3.55948	0.00000E+00
3.018	3.55932	0.00000E+00
3.026	3.55917	0.00000E+00
3.034	3.55901	0.00000E+00
3.042	3.55886	0.00000E+00
3.050	3.55871	0.00000E+00
3.058	3.55856	0.00000E+00
3.066	3.55841	0.00000E+00
3.074	3.55826	0.00000E+00
3.082	3.55811	0.00000E+00
3.090	3.55797	0.00000E+00
3.098	3.55782	0.00000E+00
3.106	3.55768	0.00000E+00
3.114	3.55753	0.00000E+00
3.122	3.55739	0.00000E+00
3.130	3.55725	0.00000E+00
3.138	3.55711	0.00000E+00
3.146	3.55697	0.00000E+00
3.154	3.55684	0.00000E+00
3.162	3.55670	0.00000E+00
3.170	3.55657	0.00000E+00
3.178	3.55643	0.00000E+00
3.186	3.55630	0.00000E+00
3.194	3.55617	0.00000E+00
3.202	3.55604	0.00000E+00
3.210	3.55591	0.00000E+00
3.218	3.55578	0.00000E+00
3.226	3.55565	0.00000E+00
3.234	3.55552	0.00000E+00
3.242	3.55540	0.00000E+00
3.250	3.55527	0.00000E+00
3.258	3.55515	0.00000E+00
3.266	3.55502	0.00000E+00
3.274	3.55490	0.00000E+00
3.282	3.55478	0.00000E+00
3.290	3.55466	0.00000E+00
3.298	3.55454	0.00000E+00
