Material: main / MoS2 / Hsu-3L
Optical constants. C. Hsu, R. Frisenda, R. Schmidt, A. Arora, S. M. de Vasconcellos, R. Bratschitsch, H. S. J. van der Zant, A. Castellanos-Gomez. Thickness-dependent refractive index of 1L, 2L, and 3L MoS2, MoSe2, WS2, and WSe2, Adv. Optical Mater. 7, 1900239 (2019) (Numerical data kindly provided by Andres Castellanos-Gomez)
Comments: 3-layer (3L)
Specs: {"n_absolute": true, "wavelength_vacuum": true, "film_thickness": "3L"}
wavelength (um)	n	k
0.39697	2.5873E+00	8.3621E-01
0.39827	2.6374E+00	8.6746E-01
0.39958	2.6561E+00	8.6245E-01
0.40088	2.6688E+00	8.5652E-01
0.40219	2.6910E+00	8.5398E-01
0.40349	2.7111E+00	8.5737E-01
0.40480	2.7312E+00	8.6414E-01
0.40610	2.7407E+00	8.7430E-01
0.40741	2.7545E+00	8.8700E-01
0.40872	2.7683E+00	9.0393E-01
0.41002	2.7841E+00	9.2340E-01
0.41133	2.8042E+00	9.4626E-01
0.41264	2.8402E+00	9.6912E-01
0.41395	2.8815E+00	9.9028E-01
0.41526	2.9143E+00	1.0072E+00
0.41657	2.9354E+00	1.0250E+00
0.41788	2.9577E+00	1.0402E+00
0.41919	2.9862E+00	1.0546E+00
0.42051	3.0190E+00	1.0699E+00
0.42182	3.0540E+00	1.0834E+00
0.42313	3.0942E+00	1.0953E+00
0.42444	3.1354E+00	1.1046E+00
0.42576	3.1693E+00	1.1122E+00
0.42707	3.2011E+00	1.1164E+00
0.42839	3.2392E+00	1.1215E+00
0.42970	3.2857E+00	1.1240E+00
0.43102	3.3333E+00	1.1240E+00
0.43234	3.3810E+00	1.1223E+00
0.43365	3.4286E+00	1.1190E+00
0.43497	3.4783E+00	1.1139E+00
0.43629	3.5323E+00	1.1054E+00
0.43761	3.5852E+00	1.0978E+00
0.43893	3.6339E+00	1.0885E+00
0.44025	3.6857E+00	1.0800E+00
0.44157	3.7407E+00	1.0724E+00
0.44289	3.7989E+00	1.0622E+00
0.44421	3.8529E+00	1.0487E+00
0.44553	3.9111E+00	1.0351E+00
0.44685	3.9693E+00	1.0233E+00
0.44818	4.0286E+00	1.0123E+00
0.44950	4.0899E+00	1.0038E+00
0.45082	4.1534E+00	9.9705E-01
0.45215	4.2169E+00	9.9028E-01
0.45347	4.2783E+00	9.8435E-01
0.45480	4.3386E+00	9.7843E-01
0.45612	4.4000E+00	9.7419E-01
0.45745	4.4635E+00	9.7504E-01
0.45878	4.5238E+00	9.7843E-01
0.46011	4.5820E+00	9.8097E-01
0.46143	4.6423E+00	9.8605E-01
0.46276	4.7016E+00	9.9197E-01
0.46409	4.7577E+00	9.9621E-01
0.46542	4.8148E+00	1.0021E+00
0.46675	4.8677E+00	1.0081E+00
0.46808	4.9196E+00	1.0140E+00
0.46941	4.9640E+00	1.0157E+00
0.47074	5.0127E+00	1.0208E+00
0.47207	5.0582E+00	1.0258E+00
0.47341	5.1058E+00	1.0335E+00
0.47474	5.1524E+00	1.0411E+00
0.47607	5.2021E+00	1.0512E+00
0.47741	5.2466E+00	1.0597E+00
0.47874	5.2889E+00	1.0673E+00
0.48008	5.3291E+00	1.0741E+00
0.48141	5.3640E+00	1.0792E+00
0.48275	5.3937E+00	1.0826E+00
0.48408	5.4201E+00	1.0868E+00
0.48542	5.4423E+00	1.0885E+00
0.48676	5.4614E+00	1.0885E+00
0.48810	5.4794E+00	1.0876E+00
0.48943	5.4942E+00	1.0851E+00
0.49077	5.5058E+00	1.0817E+00
0.49211	5.5143E+00	1.0766E+00
0.49345	5.5196E+00	1.0699E+00
0.49479	5.5228E+00	1.0622E+00
0.49613	5.5259E+00	1.0580E+00
0.49748	5.5249E+00	1.0487E+00
0.49882	5.5206E+00	1.0402E+00
0.50016	5.5153E+00	1.0284E+00
0.50150	5.5101E+00	1.0191E+00
0.50285	5.5048E+00	1.0081E+00
0.50419	5.4952E+00	9.9536E-01
0.50553	5.4889E+00	9.8605E-01
0.50688	5.4804E+00	9.7927E-01
0.50822	5.4698E+00	9.7081E-01
0.50957	5.4614E+00	9.6065E-01
0.51092	5.4519E+00	9.4795E-01
0.51226	5.4392E+00	9.3356E-01
0.51361	5.4275E+00	9.2171E-01
0.51496	5.4180E+00	9.0901E-01
0.51630	5.4074E+00	8.9631E-01
0.51765	5.3968E+00	8.8700E-01
0.51900	5.3862E+00	8.7853E-01
0.52035	5.3735E+00	8.6837E-01
0.52170	5.3608E+00	8.5906E-01
0.52305	5.3460E+00	8.5144E-01
0.52440	5.3302E+00	8.4382E-01
0.52575	5.3122E+00	8.3197E-01
0.52711	5.2984E+00	8.2181E-01
0.52846	5.2825E+00	8.1419E-01
0.52981	5.2667E+00	8.0658E-01
0.53117	5.2487E+00	7.9896E-01
0.53252	5.2317E+00	7.9303E-01
0.53387	5.2148E+00	7.8710E-01
0.53523	5.1958E+00	7.8118E-01
0.53658	5.1788E+00	7.7441E-01
0.53794	5.1619E+00	7.7017E-01
0.53930	5.1429E+00	7.6594E-01
0.54065	5.1228E+00	7.6340E-01
0.54201	5.1026E+00	7.6086E-01
0.54337	5.0825E+00	7.5832E-01
0.54472	5.0635E+00	7.5663E-01
0.54608	5.0455E+00	7.5663E-01
0.54744	5.0286E+00	7.5663E-01
0.54880	5.0127E+00	7.5663E-01
0.55016	4.9968E+00	7.5663E-01
0.55152	4.9820E+00	7.5748E-01
0.55288	4.9693E+00	7.5917E-01
0.55424	4.9598E+00	7.6171E-01
0.55560	4.9492E+00	7.6340E-01
0.55697	4.9407E+00	7.6425E-01
0.55833	4.9323E+00	7.6425E-01
0.55969	4.9228E+00	7.6425E-01
0.56106	4.9153E+00	7.6340E-01
0.56242	4.9069E+00	7.6171E-01
0.56378	4.8984E+00	7.6001E-01
0.56515	4.8889E+00	7.5748E-01
0.56651	4.8815E+00	7.5494E-01
0.56788	4.8730E+00	7.5240E-01
0.56925	4.8614E+00	7.4816E-01
0.57061	4.8497E+00	7.4393E-01
0.57198	4.8360E+00	7.3970E-01
0.57335	4.8169E+00	7.3546E-01
0.57472	4.7989E+00	7.3292E-01
0.57609	4.7746E+00	7.3123E-01
0.57745	4.7481E+00	7.3208E-01
0.57882	4.7185E+00	7.3462E-01
0.58019	4.6857E+00	7.4054E-01
0.58156	4.6476E+00	7.4901E-01
0.58293	4.6106E+00	7.6001E-01
0.58431	4.5735E+00	7.7525E-01
0.58568	4.5376E+00	7.9388E-01
0.58705	4.5048E+00	8.1589E-01
0.58842	4.4741E+00	8.3959E-01
0.58979	4.4487E+00	8.6668E-01
0.59117	4.4265E+00	8.9631E-01
0.59254	4.4116E+00	9.2933E-01
0.59392	4.4032E+00	9.5896E-01
0.59529	4.4032E+00	9.9113E-01
0.59667	4.4095E+00	1.0199E+00
0.59804	4.4243E+00	1.0453E+00
0.59942	4.4508E+00	1.0656E+00
0.60079	4.4836E+00	1.0783E+00
0.60217	4.5249E+00	1.0851E+00
0.60355	4.5778E+00	1.0842E+00
0.60493	4.6349E+00	1.0766E+00
0.60630	4.6942E+00	1.0605E+00
0.60768	4.7566E+00	1.0377E+00
0.60906	4.8169E+00	1.0089E+00
0.61044	4.8720E+00	9.7589E-01
0.61182	4.9206E+00	9.3779E-01
0.61320	4.9661E+00	8.9970E-01
0.61458	5.0042E+00	8.6160E-01
0.61596	5.0307E+00	8.2181E-01
0.61735	5.0455E+00	7.7864E-01
0.61873	5.0540E+00	7.3546E-01
0.62011	5.0582E+00	6.9906E-01
0.62149	5.0571E+00	6.6605E-01
0.62288	5.0519E+00	6.3642E-01
0.62426	5.0423E+00	6.0763E-01
0.62565	5.0286E+00	5.8308E-01
0.62703	5.0148E+00	5.6192E-01
0.62842	4.9989E+00	5.4414E-01
0.62980	4.9810E+00	5.2890E-01
0.63119	4.9630E+00	5.1621E-01
0.63257	4.9471E+00	5.0774E-01
0.63396	4.9291E+00	5.0097E-01
0.63535	4.9101E+00	4.9758E-01
0.63673	4.8910E+00	4.9758E-01
0.63812	4.8698E+00	5.0097E-01
0.63951	4.8476E+00	5.0859E-01
0.64090	4.8254E+00	5.1705E-01
0.64229	4.8042E+00	5.2806E-01
0.64368	4.7831E+00	5.4076E-01
0.64507	4.7640E+00	5.5515E-01
0.64646	4.7460E+00	5.7377E-01
0.64785	4.7291E+00	5.9494E-01
0.64924	4.7132E+00	6.2118E-01
0.65063	4.7005E+00	6.5081E-01
0.65203	4.6910E+00	6.7959E-01
0.65342	4.6878E+00	7.1091E-01
0.65481	4.6952E+00	7.3800E-01
0.65621	4.7122E+00	7.5832E-01
0.65760	4.7397E+00	7.6848E-01
0.65899	4.7831E+00	7.6679E-01
0.66039	4.8413E+00	7.4901E-01
0.66178	4.9143E+00	7.1261E-01
0.66318	4.9989E+00	6.6097E-01
0.66458	5.0910E+00	5.9748E-01
0.66597	5.1862E+00	5.2890E-01
0.66737	5.2751E+00	4.5689E-01
0.66877	5.3513E+00	3.8519E-01
0.67016	5.4085E+00	3.1554E-01
0.67156	5.4487E+00	2.4956E-01
0.67296	5.4709E+00	1.8575E-01
0.67436	5.4783E+00	1.2339E-01
0.67576	5.4730E+00	6.6216E-02
0.67716	5.4550E+00	2.3420E-02
0.67856	5.4233E+00	2.5941E-03
0.67996	5.3810E+00	0.0000E+00
0.68136	5.3333E+00	0.0000E+00
0.68276	5.2857E+00	0.0000E+00
0.68416	5.2381E+00	0.0000E+00
0.68556	5.1905E+00	0.0000E+00
0.68696	5.1471E+00	0.0000E+00
0.68837	5.1069E+00	0.0000E+00
0.68977	5.0709E+00	0.0000E+00
0.69117	5.0370E+00	0.0000E+00
0.69258	5.0074E+00	0.0000E+00
0.69398	4.9820E+00	0.0000E+00
0.69539	4.9608E+00	0.0000E+00
0.69679	4.9418E+00	0.0000E+00
0.69820	4.9259E+00	0.0000E+00
0.69960	4.9111E+00	0.0000E+00
0.70101	4.8974E+00	0.0000E+00
0.70242	4.8878E+00	0.0000E+00
0.70382	4.8804E+00	0.0000E+00
0.70523	4.8741E+00	0.0000E+00
0.70664	4.8709E+00	0.0000E+00
0.70805	4.8688E+00	0.0000E+00
0.70946	4.8667E+00	0.0000E+00
0.71086	4.8635E+00	2.1577E-03
0.71227	4.8614E+00	8.7968E-03
0.71368	4.8582E+00	1.8856E-02
0.71509	4.8550E+00	2.9775E-02
0.71650	4.8508E+00	3.9804E-02
0.71792	4.8497E+00	4.8116E-02
0.71933	4.8476E+00	5.6791E-02
0.72074	4.8455E+00	6.6469E-02
0.72215	4.8487E+00	7.4546E-02
0.72356	4.8529E+00	8.0454E-02
0.72498	4.8571E+00	8.4125E-02
0.72639	4.8603E+00	8.7140E-02
0.72780	4.8646E+00	9.0418E-02
0.72922	4.8688E+00	9.3079E-02
0.73063	4.8698E+00	9.7557E-02
0.73205	4.8709E+00	1.0218E-01
0.73346	4.8730E+00	1.0691E-01
0.73488	4.8762E+00	1.1099E-01
0.73629	4.8772E+00	1.1429E-01
0.73771	4.8804E+00	1.1343E-01
0.73913	4.8836E+00	1.1149E-01
0.74054	4.8878E+00	1.1082E-01
0.74196	4.8921E+00	1.1149E-01
0.74338	4.8942E+00	1.1007E-01
0.74480	4.8942E+00	1.0925E-01
0.74621	4.8931E+00	1.0666E-01
0.74763	4.8931E+00	1.0450E-01
0.74905	4.8931E+00	9.9865E-02
0.75047	4.8931E+00	9.5919E-02
0.75189	4.8931E+00	9.4117E-02
0.75331	4.8931E+00	9.2692E-02
0.75473	4.8952E+00	8.8871E-02
0.75615	4.8963E+00	8.2641E-02
0.75757	4.8984E+00	7.8284E-02
0.75900	4.8974E+00	7.2333E-02
0.76042	4.8910E+00	6.5963E-02
0.76184	4.8857E+00	6.0262E-02
0.76326	4.8836E+00	5.4830E-02
0.76469	4.8804E+00	5.0439E-02
0.76611	4.8783E+00	4.5202E-02
0.76753	4.8772E+00	3.9459E-02
0.76896	4.8772E+00	3.3417E-02
0.77038	4.8741E+00	2.5219E-02
0.77181	4.8688E+00	1.6349E-02
0.77323	4.8624E+00	7.3820E-03
0.77466	4.8571E+00	1.7135E-03
0.77609	4.8519E+00	0.0000E+00
0.77751	4.8476E+00	0.0000E+00
0.77894	4.8423E+00	0.0000E+00
0.78037	4.8392E+00	0.0000E+00
0.78179	4.8339E+00	0.0000E+00
0.78322	4.8275E+00	0.0000E+00
0.78465	4.8222E+00	0.0000E+00
0.78608	4.8180E+00	0.0000E+00
0.78751	4.8138E+00	0.0000E+00
0.78894	4.8085E+00	0.0000E+00
0.79037	4.8000E+00	0.0000E+00
0.79179	4.7915E+00	0.0000E+00
0.79323	4.7810E+00	0.0000E+00
0.79466	4.7683E+00	0.0000E+00
0.79609	4.7545E+00	0.0000E+00
0.79752	4.7407E+00	0.0000E+00
0.79895	4.7291E+00	0.0000E+00
0.80038	4.7175E+00	0.0000E+00
0.80181	4.7058E+00	0.0000E+00
0.80325	4.6984E+00	0.0000E+00
0.80468	4.6910E+00	0.0000E+00
0.80611	4.6825E+00	0.0000E+00
0.80755	4.6720E+00	0.0000E+00
0.80898	4.6624E+00	0.0000E+00
0.81042	4.6519E+00	0.0000E+00
0.81185	4.6423E+00	0.0000E+00
0.81329	4.6317E+00	0.0000E+00
0.81472	4.6212E+00	0.0000E+00
0.81616	4.6074E+00	0.0000E+00
0.81759	4.5873E+00	0.0000E+00
0.81903	4.5683E+00	0.0000E+00
0.82047	4.5524E+00	0.0000E+00
0.82190	4.5365E+00	0.0000E+00
0.82334	4.5228E+00	0.0000E+00
0.82478	4.5185E+00	0.0000E+00
0.82622	4.5122E+00	0.0000E+00
0.82765	4.4984E+00	0.0000E+00
0.82909	4.4804E+00	0.0000E+00
0.83053	4.4698E+00	0.0000E+00
0.83197	4.4529E+00	0.0000E+00
0.83341	4.4370E+00	0.0000E+00
0.83485	4.4275E+00	0.0000E+00
0.83629	4.4243E+00	0.0000E+00
0.83773	4.4201E+00	0.0000E+00
0.83917	4.4127E+00	0.0000E+00
0.84062	4.4032E+00	0.0000E+00
0.84206	4.3926E+00	0.0000E+00
0.84350	4.3799E+00	0.0000E+00
0.84494	4.3556E+00	0.0000E+00
0.84638	4.3302E+00	0.0000E+00
0.84783	4.3122E+00	0.0000E+00
0.84927	4.3037E+00	0.0000E+00
0.85071	4.2921E+00	0.0000E+00
0.85216	4.2836E+00	0.0000E+00
0.85360	4.2783E+00	0.0000E+00
0.85505	4.2762E+00	0.0000E+00
0.85649	4.3111E+00	0.0000E+00
