Material: main / MoS2 / Hsu-2L
Optical constants. C. Hsu, R. Frisenda, R. Schmidt, A. Arora, S. M. de Vasconcellos, R. Bratschitsch, H. S. J. van der Zant, A. Castellanos-Gomez. Thickness-dependent refractive index of 1L, 2L, and 3L MoS2, MoSe2, WS2, and WSe2, Adv. Optical Mater. 7, 1900239 (2019) (Numerical data kindly provided by Andres Castellanos-Gomez)
Comments: 2-layer (2L)
Specs: {"n_absolute": true, "wavelength_vacuum": true, "film_thickness": "2L"}
wavelength (um)	n	k
0.39697	3.9524E+00	2.0252E+00
0.39827	3.6051E+00	2.0906E+00
0.39958	3.5651E+00	2.0675E+00
0.40088	3.5473E+00	2.0531E+00
0.40219	3.5333E+00	2.0506E+00
0.40349	3.5041E+00	2.0590E+00
0.40480	3.4762E+00	2.0743E+00
0.40610	3.4368E+00	2.0870E+00
0.40741	3.4000E+00	2.1073E+00
0.40872	3.3721E+00	2.1310E+00
0.41002	3.3594E+00	2.1539E+00
0.41133	3.3619E+00	2.1809E+00
0.41264	3.3784E+00	2.2131E+00
0.41395	3.3987E+00	2.2411E+00
0.41526	3.4203E+00	2.2614E+00
0.41657	3.4394E+00	2.2834E+00
0.41788	3.4648E+00	2.3062E+00
0.41919	3.5029E+00	2.3232E+00
0.42051	3.5524E+00	2.3426E+00
0.42182	3.6070E+00	2.3655E+00
0.42313	3.6679E+00	2.3875E+00
0.42444	3.7340E+00	2.4078E+00
0.42576	3.8000E+00	2.4265E+00
0.42707	3.8571E+00	2.4408E+00
0.42839	3.9232E+00	2.4510E+00
0.42970	3.9956E+00	2.4620E+00
0.43102	4.0705E+00	2.4747E+00
0.43234	4.1441E+00	2.4832E+00
0.43365	4.2190E+00	2.4874E+00
0.43497	4.2876E+00	2.4849E+00
0.43629	4.3575E+00	2.4756E+00
0.43761	4.4222E+00	2.4586E+00
0.43893	4.4921E+00	2.4408E+00
0.44025	4.5683E+00	2.4265E+00
0.44157	4.6533E+00	2.4129E+00
0.44289	4.7295E+00	2.3909E+00
0.44421	4.7956E+00	2.3579E+00
0.44553	4.8654E+00	2.3232E+00
0.44685	4.9429E+00	2.2935E+00
0.44818	5.0216E+00	2.2673E+00
0.44950	5.1041E+00	2.2487E+00
0.45082	5.1867E+00	2.2292E+00
0.45215	5.2667E+00	2.2089E+00
0.45347	5.3390E+00	2.1852E+00
0.45480	5.4063E+00	2.1606E+00
0.45612	5.4711E+00	2.1344E+00
0.45745	5.5410E+00	2.1200E+00
0.45878	5.6044E+00	2.1056E+00
0.46010	5.6629E+00	2.0895E+00
0.46143	5.7137E+00	2.0658E+00
0.46276	5.7606E+00	2.0387E+00
0.46409	5.8013E+00	2.0057E+00
0.46542	5.8394E+00	1.9735E+00
0.46675	5.8737E+00	1.9405E+00
0.46808	5.9003E+00	1.9033E+00
0.46941	5.9219E+00	1.8643E+00
0.47074	5.9384E+00	1.8229E+00
0.47207	5.9486E+00	1.7780E+00
0.47341	5.9575E+00	1.7348E+00
0.47474	5.9613E+00	1.6899E+00
0.47607	5.9600E+00	1.6425E+00
0.47741	5.9562E+00	1.5951E+00
0.47874	5.9524E+00	1.5494E+00
0.48008	5.9435E+00	1.5012E+00
0.48141	5.9346E+00	1.4571E+00
0.48275	5.9232E+00	1.4131E+00
0.48408	5.9092E+00	1.3716E+00
0.48542	5.8940E+00	1.3318E+00
0.48676	5.8800E+00	1.2954E+00
0.48810	5.8648E+00	1.2607E+00
0.48943	5.8457E+00	1.2243E+00
0.49077	5.8279E+00	1.1905E+00
0.49211	5.8114E+00	1.1583E+00
0.49345	5.7949E+00	1.1287E+00
0.49479	5.7784E+00	1.1016E+00
0.49613	5.7619E+00	1.0753E+00
0.49748	5.7441E+00	1.0499E+00
0.49882	5.7225E+00	1.0262E+00
0.50016	5.7035E+00	1.0034E+00
0.50150	5.6806E+00	9.8307E-01
0.50285	5.6552E+00	9.6359E-01
0.50419	5.6298E+00	9.4666E-01
0.50553	5.6070E+00	9.3142E-01
0.50688	5.5829E+00	9.1534E-01
0.50822	5.5587E+00	8.9926E-01
0.50957	5.5346E+00	8.8571E-01
0.51092	5.5079E+00	8.7301E-01
0.51226	5.4813E+00	8.6031E-01
0.51361	5.4559E+00	8.4931E-01
0.51496	5.4279E+00	8.4000E-01
0.51630	5.4000E+00	8.3153E-01
0.51765	5.3708E+00	8.2560E-01
0.51900	5.3390E+00	8.2053E-01
0.52035	5.3098E+00	8.1714E-01
0.52170	5.2768E+00	8.1206E-01
0.52305	5.2463E+00	8.1037E-01
0.52440	5.2159E+00	8.0698E-01
0.52575	5.1841E+00	8.0444E-01
0.52711	5.1498E+00	8.0275E-01
0.52846	5.1168E+00	8.0359E-01
0.52981	5.0851E+00	8.0698E-01
0.53117	5.0533E+00	8.1291E-01
0.53252	5.0254E+00	8.1968E-01
0.53387	5.0013E+00	8.2730E-01
0.53523	4.9810E+00	8.3915E-01
0.53658	4.9619E+00	8.5185E-01
0.53794	4.9479E+00	8.6624E-01
0.53930	4.9403E+00	8.8232E-01
0.54065	4.9390E+00	9.0095E-01
0.54201	4.9441E+00	9.2042E-01
0.54337	4.9556E+00	9.3820E-01
0.54472	4.9695E+00	9.5598E-01
0.54608	4.9835E+00	9.7037E-01
0.54744	4.9987E+00	9.8307E-01
0.54880	5.0152E+00	9.9407E-01
0.55016	5.0292E+00	1.0034E+00
0.55152	5.0457E+00	1.0102E+00
0.55288	5.0597E+00	1.0144E+00
0.55424	5.0698E+00	1.0169E+00
0.55560	5.0775E+00	1.0186E+00
0.55697	5.0851E+00	1.0169E+00
0.55833	5.0902E+00	1.0127E+00
0.55969	5.0876E+00	1.0068E+00
0.56106	5.0825E+00	9.9830E-01
0.56242	5.0737E+00	9.8899E-01
0.56378	5.0610E+00	9.7799E-01
0.56515	5.0432E+00	9.6783E-01
0.56651	5.0216E+00	9.5767E-01
0.56788	4.9962E+00	9.4836E-01
0.56925	4.9670E+00	9.3904E-01
0.57061	4.9314E+00	9.3058E-01
0.57198	4.8921E+00	9.2550E-01
0.57335	4.8502E+00	9.2381E-01
0.57472	4.8032E+00	9.2465E-01
0.57608	4.7524E+00	9.2973E-01
0.57745	4.6965E+00	9.3989E-01
0.57882	4.6457E+00	9.5344E-01
0.58019	4.5962E+00	9.7206E-01
0.58156	4.5429E+00	9.9492E-01
0.58293	4.4908E+00	1.0254E+00
0.58431	4.4463E+00	1.0567E+00
0.58568	4.4083E+00	1.0906E+00
0.58705	4.3727E+00	1.1287E+00
0.58842	4.3435E+00	1.1718E+00
0.58979	4.3232E+00	1.2150E+00
0.59117	4.3130E+00	1.2582E+00
0.59254	4.3092E+00	1.3039E+00
0.59392	4.3117E+00	1.3471E+00
0.59529	4.3206E+00	1.3903E+00
0.59667	4.3397E+00	1.4292E+00
0.59804	4.3663E+00	1.4673E+00
0.59942	4.4019E+00	1.4978E+00
0.60079	4.4489E+00	1.5198E+00
0.60217	4.5048E+00	1.5316E+00
0.60355	4.5619E+00	1.5342E+00
0.60493	4.6254E+00	1.5240E+00
0.60630	4.6902E+00	1.5029E+00
0.60768	4.7524E+00	1.4741E+00
0.60906	4.8095E+00	1.4360E+00
0.61044	4.8603E+00	1.3911E+00
0.61182	4.9060E+00	1.3445E+00
0.61320	4.9441E+00	1.2963E+00
0.61458	4.9733E+00	1.2472E+00
0.61596	4.9949E+00	1.1981E+00
0.61735	5.0076E+00	1.1524E+00
0.61873	5.0140E+00	1.1075E+00
0.62011	5.0076E+00	1.0694E+00
0.62149	4.9962E+00	1.0347E+00
0.62288	4.9784E+00	1.0059E+00
0.62426	4.9543E+00	9.8476E-01
0.62565	4.9251E+00	9.6952E-01
0.62703	4.8946E+00	9.6105E-01
0.62842	4.8616E+00	9.6021E-01
0.62980	4.8337E+00	9.6359E-01
0.63119	4.8044E+00	9.7037E-01
0.63257	4.7829E+00	9.8222E-01
0.63396	4.7638E+00	9.9746E-01
0.63535	4.7511E+00	1.0144E+00
0.63673	4.7397E+00	1.0322E+00
0.63812	4.7321E+00	1.0516E+00
0.63951	4.7270E+00	1.0720E+00
0.64090	4.7232E+00	1.0923E+00
0.64229	4.7156E+00	1.1143E+00
0.64368	4.7105E+00	1.1371E+00
0.64507	4.7041E+00	1.1642E+00
0.64646	4.7003E+00	1.1930E+00
0.64785	4.7003E+00	1.2286E+00
0.64924	4.7016E+00	1.2717E+00
0.65063	4.7117E+00	1.3191E+00
0.65203	4.7346E+00	1.3683E+00
0.65342	4.7676E+00	1.4131E+00
0.65481	4.8197E+00	1.4512E+00
0.65621	4.8895E+00	1.4783E+00
0.65760	4.9784E+00	1.4893E+00
0.65899	5.0825E+00	1.4842E+00
0.66039	5.1956E+00	1.4588E+00
0.66178	5.3073E+00	1.4165E+00
0.66318	5.4076E+00	1.3581E+00
0.66457	5.4876E+00	1.2929E+00
0.66597	5.5410E+00	1.2209E+00
0.66737	5.5663E+00	1.1456E+00
0.66877	5.5663E+00	1.0703E+00
0.67016	5.5511E+00	9.9661E-01
0.67156	5.5232E+00	9.2719E-01
0.67296	5.4863E+00	8.6285E-01
0.67436	5.4470E+00	8.0359E-01
0.67576	5.4076E+00	7.4941E-01
0.67716	5.3695E+00	6.9947E-01
0.67856	5.3327E+00	6.5545E-01
0.67996	5.2984E+00	6.1566E-01
0.68136	5.2692E+00	5.7841E-01
0.68276	5.2400E+00	5.4624E-01
0.68416	5.2133E+00	5.2000E-01
0.68556	5.1879E+00	4.9799E-01
0.68696	5.1638E+00	4.7936E-01
0.68837	5.1384E+00	4.6582E-01
0.68977	5.1181E+00	4.5566E-01
0.69117	5.1016E+00	4.4635E-01
0.69258	5.0863E+00	4.3873E-01
0.69398	5.0711E+00	4.3449E-01
0.69539	5.0584E+00	4.3111E-01
0.69679	5.0508E+00	4.2857E-01
0.69820	5.0432E+00	4.2603E-01
0.69960	5.0368E+00	4.2180E-01
0.70101	5.0292E+00	4.1587E-01
0.70242	5.0241E+00	4.1164E-01
0.70382	5.0190E+00	4.0626E-01
0.70523	5.0140E+00	4.0251E-01
0.70664	5.0089E+00	4.0172E-01
0.70805	5.0051E+00	4.0206E-01
0.70946	5.0051E+00	3.9910E-01
0.71086	5.0051E+00	3.9394E-01
0.71227	5.0051E+00	3.8988E-01
0.71368	5.0051E+00	3.8745E-01
0.71509	5.0051E+00	3.8541E-01
0.71650	5.0051E+00	3.8155E-01
0.71792	5.0051E+00	3.7593E-01
0.71933	5.0051E+00	3.7273E-01
0.72074	5.0051E+00	3.6900E-01
0.72215	5.0051E+00	3.6591E-01
0.72356	5.0051E+00	3.6318E-01
0.72498	5.0051E+00	3.5805E-01
0.72639	5.0089E+00	3.5026E-01
0.72780	5.0127E+00	3.4373E-01
0.72922	5.0152E+00	3.3934E-01
0.73063	5.0190E+00	3.3425E-01
0.73205	5.0229E+00	3.2595E-01
0.73346	5.0241E+00	3.2094E-01
0.73488	5.0241E+00	3.1547E-01
0.73629	5.0241E+00	3.0821E-01
0.73771	5.0254E+00	3.0041E-01
0.73913	5.0292E+00	2.9445E-01
0.74054	5.0368E+00	2.8786E-01
0.74196	5.0419E+00	2.8319E-01
0.74338	5.0483E+00	2.7710E-01
0.74480	5.0559E+00	2.7061E-01
0.74621	5.0597E+00	2.6239E-01
0.74763	5.0648E+00	2.5425E-01
0.74905	5.0686E+00	2.4425E-01
0.75047	5.0711E+00	2.3577E-01
0.75189	5.0724E+00	2.3098E-01
0.75331	5.0762E+00	2.2735E-01
0.75473	5.0800E+00	2.2115E-01
0.75615	5.0838E+00	2.1203E-01
0.75757	5.0876E+00	2.0205E-01
0.75900	5.0940E+00	1.8783E-01
0.76042	5.0990E+00	1.7385E-01
0.76184	5.1079E+00	1.6387E-01
0.76326	5.1156E+00	1.6034E-01
0.76469	5.1232E+00	1.5804E-01
0.76611	5.1308E+00	1.5475E-01
0.76753	5.1384E+00	1.5047E-01
0.76896	5.1422E+00	1.4282E-01
0.77038	5.1410E+00	1.3345E-01
0.77181	5.1410E+00	1.2306E-01
0.77323	5.1460E+00	1.0973E-01
0.77466	5.1537E+00	9.9731E-02
0.77609	5.1625E+00	9.0683E-02
0.77751	5.1727E+00	8.3180E-02
0.77894	5.1803E+00	7.5878E-02
0.78037	5.1892E+00	6.7033E-02
0.78179	5.1930E+00	5.4282E-02
0.78322	5.1956E+00	4.6196E-02
0.78465	5.2019E+00	3.9004E-02
0.78608	5.2108E+00	3.2492E-02
0.78751	5.2210E+00	2.7064E-02
0.78894	5.2286E+00	2.1891E-02
0.79037	5.2375E+00	1.1897E-02
0.79180	5.2463E+00	3.4617E-03
0.79323	5.2514E+00	0.0000E+00
0.79466	5.2527E+00	0.0000E+00
0.79609	5.2527E+00	0.0000E+00
0.79752	5.2565E+00	0.0000E+00
0.79895	5.2616E+00	0.0000E+00
0.80038	5.2667E+00	0.0000E+00
0.80181	5.2717E+00	0.0000E+00
0.80325	5.2756E+00	0.0000E+00
0.80468	5.2832E+00	0.0000E+00
0.80611	5.2870E+00	0.0000E+00
0.80755	5.2870E+00	0.0000E+00
0.80898	5.2844E+00	0.0000E+00
0.81042	5.2832E+00	0.0000E+00
0.81185	5.2819E+00	0.0000E+00
0.81329	5.2781E+00	0.0000E+00
0.81472	5.2781E+00	0.0000E+00
0.81616	5.2806E+00	0.0000E+00
0.81759	5.2768E+00	0.0000E+00
0.81903	5.2717E+00	0.0000E+00
0.82047	5.2667E+00	0.0000E+00
0.82190	5.2654E+00	0.0000E+00
0.82334	5.2679E+00	0.0000E+00
0.82478	5.2806E+00	0.0000E+00
0.82622	5.2908E+00	0.0000E+00
0.82765	5.2908E+00	0.0000E+00
0.82909	5.2908E+00	0.0000E+00
0.83053	5.2908E+00	0.0000E+00
0.83197	5.2883E+00	0.0000E+00
0.83341	5.2971E+00	0.0000E+00
0.83485	5.3111E+00	0.0000E+00
0.83629	5.3289E+00	0.0000E+00
0.83773	5.3467E+00	0.0000E+00
0.83917	5.3581E+00	0.0000E+00
0.84062	5.3556E+00	0.0000E+00
0.84206	5.3505E+00	0.0000E+00
0.84350	5.3479E+00	0.0000E+00
0.84494	5.3403E+00	0.0000E+00
0.84638	5.3263E+00	0.0000E+00
0.84783	5.3035E+00	0.0000E+00
0.84927	5.2908E+00	0.0000E+00
0.85071	5.2730E+00	0.0000E+00
0.85216	5.2540E+00	0.0000E+00
0.85360	5.2451E+00	0.0000E+00
0.85505	5.2463E+00	0.0000E+00
0.85649	5.3276E+00	3.1746E-02
