Material: main / MoS2 / Hsu-1L
Optical constants. C. Hsu, R. Frisenda, R. Schmidt, A. Arora, S. M. de Vasconcellos, R. Bratschitsch, H. S. J. van der Zant, A. Castellanos-Gomez. Thickness-dependent refractive index of 1L, 2L, and 3L MoS2, MoSe2, WS2, and WSe2, Adv. Optical Mater. 7, 1900239 (2019) (Numerical data kindly provided by Andres Castellanos-Gomez)
Comments: Monolayer (1-layer, 1L)
Specs: {"n_absolute": true, "wavelength_vacuum": true, "film_thickness": "1L"}
wavelength (um)	n	k
0.39697	2.8095E+00	3.0444E+00
0.39827	2.8696E+00	2.9184E+00
0.39958	2.9517E+00	2.8370E+00
0.40088	3.0190E+00	2.7879E+00
0.40219	3.0800E+00	2.7642E+00
0.40349	3.1346E+00	2.7498E+00
0.40480	3.1841E+00	2.7523E+00
0.40610	3.2286E+00	2.7574E+00
0.40741	3.2844E+00	2.7676E+00
0.40872	3.3403E+00	2.7811E+00
0.41002	3.3911E+00	2.8031E+00
0.41133	3.4495E+00	2.8319E+00
0.41264	3.5244E+00	2.8649E+00
0.41395	3.6006E+00	2.8988E+00
0.41526	3.6717E+00	2.9394E+00
0.41657	3.7479E+00	2.9826E+00
0.41788	3.8356E+00	3.0198E+00
0.41919	3.9244E+00	3.0512E+00
0.42051	4.0159E+00	3.0791E+00
0.42182	4.1098E+00	3.1020E+00
0.42313	4.2076E+00	3.1155E+00
0.42444	4.3156E+00	3.1240E+00
0.42576	4.4260E+00	3.1273E+00
0.42707	4.5352E+00	3.1257E+00
0.42839	4.6521E+00	3.1155E+00
0.42970	4.7663E+00	3.0960E+00
0.43102	4.8819E+00	3.0664E+00
0.43234	4.9937E+00	3.0317E+00
0.43365	5.1067E+00	2.9834E+00
0.43497	5.2108E+00	2.9216E+00
0.43629	5.3098E+00	2.8488E+00
0.43761	5.4038E+00	2.7743E+00
0.43893	5.4914E+00	2.6956E+00
0.44025	5.5752E+00	2.6160E+00
0.44157	5.6527E+00	2.5407E+00
0.44289	5.7187E+00	2.4653E+00
0.44421	5.7695E+00	2.3866E+00
0.44553	5.8114E+00	2.3113E+00
0.44685	5.8495E+00	2.2385E+00
0.44818	5.8838E+00	2.1716E+00
0.44950	5.9168E+00	2.1089E+00
0.45082	5.9498E+00	2.0488E+00
0.45215	5.9778E+00	1.9896E+00
0.45347	5.9981E+00	1.9329E+00
0.45480	6.0108E+00	1.8744E+00
0.45612	6.0210E+00	1.8194E+00
0.45745	6.0286E+00	1.7686E+00
0.45878	6.0324E+00	1.7212E+00
0.46011	6.0362E+00	1.6738E+00
0.46143	6.0362E+00	1.6272E+00
0.46276	6.0337E+00	1.5790E+00
0.46409	6.0260E+00	1.5358E+00
0.46542	6.0159E+00	1.4952E+00
0.46675	6.0044E+00	1.4571E+00
0.46808	5.9917E+00	1.4190E+00
0.46941	5.9778E+00	1.3809E+00
0.47074	5.9625E+00	1.3428E+00
0.47207	5.9460E+00	1.3098E+00
0.47341	5.9295E+00	1.2785E+00
0.47474	5.9117E+00	1.2488E+00
0.47607	5.8940E+00	1.2217E+00
0.47741	5.8749E+00	1.1955E+00
0.47874	5.8533E+00	1.1693E+00
0.48008	5.8330E+00	1.1439E+00
0.48141	5.8127E+00	1.1202E+00
0.48275	5.7937E+00	1.0981E+00
0.48408	5.7746E+00	1.0770E+00
0.48542	5.7543E+00	1.0575E+00
0.48676	5.7352E+00	1.0406E+00
0.48810	5.7137E+00	1.0245E+00
0.48943	5.6933E+00	1.0093E+00
0.49077	5.6730E+00	9.9571E-01
0.49211	5.6527E+00	9.8216E-01
0.49345	5.6311E+00	9.6862E-01
0.49479	5.6108E+00	9.5592E-01
0.49613	5.5892E+00	9.4576E-01
0.49748	5.5663E+00	9.3645E-01
0.49882	5.5435E+00	9.2968E-01
0.50016	5.5194E+00	9.2375E-01
0.50150	5.4978E+00	9.1952E-01
0.50285	5.4749E+00	9.1529E-01
0.50419	5.4521E+00	9.1105E-01
0.50553	5.4267E+00	9.0851E-01
0.50688	5.4038E+00	9.0767E-01
0.50822	5.3797E+00	9.0767E-01
0.50957	5.3581E+00	9.0513E-01
0.51092	5.3352E+00	9.0259E-01
0.51226	5.3137E+00	9.0174E-01
0.51361	5.2908E+00	9.0174E-01
0.51496	5.2705E+00	9.0174E-01
0.51630	5.2514E+00	9.0259E-01
0.51765	5.2337E+00	9.0513E-01
0.51900	5.2184E+00	9.0767E-01
0.52035	5.2057E+00	9.1021E-01
0.52170	5.1917E+00	9.1275E-01
0.52305	5.1765E+00	9.1444E-01
0.52440	5.1587E+00	9.1190E-01
0.52575	5.1384E+00	9.0936E-01
0.52711	5.1168E+00	9.0767E-01
0.52846	5.0965E+00	9.0767E-01
0.52981	5.0800E+00	9.0767E-01
0.53117	5.0635E+00	9.0767E-01
0.53252	5.0470E+00	9.0767E-01
0.53387	5.0317E+00	9.0767E-01
0.53523	5.0190E+00	9.0767E-01
0.53658	5.0076E+00	9.0936E-01
0.53794	4.9975E+00	9.1190E-01
0.53930	4.9886E+00	9.1444E-01
0.54065	4.9810E+00	9.1529E-01
0.54201	4.9771E+00	9.1783E-01
0.54337	4.9721E+00	9.2036E-01
0.54472	4.9695E+00	9.1952E-01
0.54608	4.9708E+00	9.1698E-01
0.54744	4.9708E+00	9.1444E-01
0.54880	4.9670E+00	9.1190E-01
0.55016	4.9644E+00	9.0936E-01
0.55152	4.9606E+00	9.0513E-01
0.55288	4.9556E+00	9.0174E-01
0.55424	4.9505E+00	8.9835E-01
0.55560	4.9429E+00	8.9412E-01
0.55697	4.9352E+00	8.8904E-01
0.55833	4.9251E+00	8.8481E-01
0.55969	4.9124E+00	8.7973E-01
0.56106	4.8946E+00	8.7719E-01
0.56242	4.8768E+00	8.7380E-01
0.56378	4.8552E+00	8.7296E-01
0.56515	4.8298E+00	8.7380E-01
0.56651	4.8032E+00	8.7719E-01
0.56788	4.7752E+00	8.8227E-01
0.56925	4.7448E+00	8.8904E-01
0.57061	4.7117E+00	9.0005E-01
0.57198	4.6787E+00	9.1444E-01
0.57335	4.6457E+00	9.3137E-01
0.57472	4.6152E+00	9.5169E-01
0.57609	4.5822E+00	9.7370E-01
0.57745	4.5492E+00	9.9994E-01
0.57882	4.5187E+00	1.0270E+00
0.58019	4.4921E+00	1.0558E+00
0.58156	4.4679E+00	1.0871E+00
0.58293	4.4489E+00	1.1193E+00
0.58431	4.4349E+00	1.1498E+00
0.58568	4.4235E+00	1.1828E+00
0.58705	4.4159E+00	1.2167E+00
0.58842	4.4095E+00	1.2539E+00
0.58979	4.4083E+00	1.2920E+00
0.59117	4.4121E+00	1.3301E+00
0.59254	4.4222E+00	1.3682E+00
0.59392	4.4375E+00	1.4063E+00
0.59529	4.4603E+00	1.4444E+00
0.59667	4.4921E+00	1.4774E+00
0.59804	4.5314E+00	1.5028E+00
0.59942	4.5759E+00	1.5214E+00
0.60079	4.6254E+00	1.5316E+00
0.60217	4.6800E+00	1.5341E+00
0.60355	4.7397E+00	1.5282E+00
0.60493	4.8032E+00	1.5130E+00
0.60630	4.8565E+00	1.4935E+00
0.60768	4.9086E+00	1.4664E+00
0.60906	4.9581E+00	1.4342E+00
0.61044	5.0051E+00	1.3995E+00
0.61182	5.0432E+00	1.3640E+00
0.61320	5.0749E+00	1.3250E+00
0.61458	5.0978E+00	1.2869E+00
0.61596	5.1143E+00	1.2471E+00
0.61735	5.1232E+00	1.2099E+00
0.61873	5.1244E+00	1.1735E+00
0.62011	5.1194E+00	1.1405E+00
0.62149	5.1117E+00	1.1100E+00
0.62288	5.0978E+00	1.0854E+00
0.62426	5.0775E+00	1.0643E+00
0.62565	5.0559E+00	1.0490E+00
0.62703	5.0279E+00	1.0406E+00
0.62842	5.0025E+00	1.0355E+00
0.62980	4.9746E+00	1.0363E+00
0.63119	4.9479E+00	1.0423E+00
0.63257	4.9213E+00	1.0533E+00
0.63396	4.8997E+00	1.0668E+00
0.63535	4.8781E+00	1.0854E+00
0.63673	4.8590E+00	1.1108E+00
0.63812	4.8425E+00	1.1447E+00
0.63951	4.8349E+00	1.1803E+00
0.64090	4.8349E+00	1.2167E+00
0.64229	4.8451E+00	1.2539E+00
0.64368	4.8692E+00	1.2869E+00
0.64507	4.9098E+00	1.3132E+00
0.64646	4.9657E+00	1.3309E+00
0.64785	5.0381E+00	1.3360E+00
0.64924	5.1244E+00	1.3250E+00
0.65063	5.2159E+00	1.2971E+00
0.65203	5.3098E+00	1.2514E+00
0.65342	5.3975E+00	1.1904E+00
0.65481	5.4711E+00	1.1210E+00
0.65621	5.5257E+00	1.0499E+00
0.65760	5.5613E+00	9.7708E-01
0.65899	5.5790E+00	9.0936E-01
0.66039	5.5816E+00	8.4756E-01
0.66178	5.5727E+00	7.9592E-01
0.66318	5.5549E+00	7.5021E-01
0.66458	5.5333E+00	7.0788E-01
0.66597	5.5105E+00	6.6978E-01
0.66737	5.4863E+00	6.3423E-01
0.66877	5.4648E+00	6.0121E-01
0.67016	5.4419E+00	5.7243E-01
0.67156	5.4178E+00	5.4534E-01
0.67296	5.3924E+00	5.2079E-01
0.67436	5.3670E+00	4.9454E-01
0.67576	5.3390E+00	4.7084E-01
0.67716	5.3111E+00	4.4883E-01
0.67856	5.2832E+00	4.2576E-01
0.67996	5.2603E+00	4.0371E-01
0.68136	5.2375E+00	3.8649E-01
0.68276	5.2159E+00	3.7219E-01
0.68416	5.1968E+00	3.5592E-01
0.68556	5.1790E+00	3.4323E-01
0.68696	5.1625E+00	3.2835E-01
0.68837	5.1473E+00	3.1553E-01
0.68977	5.1321E+00	3.0509E-01
0.69117	5.1194E+00	2.9391E-01
0.69258	5.1092E+00	2.8340E-01
0.69398	5.0990E+00	2.7420E-01
0.69539	5.0914E+00	2.6528E-01
0.69679	5.0863E+00	2.5515E-01
0.69820	5.0800E+00	2.4627E-01
0.69960	5.0737E+00	2.3853E-01
0.70101	5.0711E+00	2.2699E-01
0.70242	5.0686E+00	2.1665E-01
0.70382	5.0648E+00	2.0618E-01
0.70523	5.0610E+00	1.9530E-01
0.70664	5.0597E+00	1.8351E-01
0.70805	5.0584E+00	1.7208E-01
0.70946	5.0597E+00	1.6030E-01
0.71086	5.0635E+00	1.4894E-01
0.71227	5.0686E+00	1.3875E-01
0.71368	5.0762E+00	1.2542E-01
0.71509	5.0813E+00	1.1298E-01
0.71650	5.0825E+00	1.0158E-01
0.71792	5.0851E+00	8.9296E-02
0.71933	5.0914E+00	7.4154E-02
0.72074	5.0965E+00	5.9229E-02
0.72215	5.1016E+00	4.7247E-02
0.72356	5.1067E+00	3.6979E-02
0.72498	5.1143E+00	2.4319E-02
0.72639	5.1219E+00	1.2313E-02
0.72780	5.1270E+00	3.8777E-03
0.72922	5.1283E+00	4.2328E-04
0.73063	5.1283E+00	0.0000E+00
0.73205	5.1295E+00	0.0000E+00
0.73346	5.1333E+00	0.0000E+00
0.73488	5.1371E+00	0.0000E+00
0.73629	5.1384E+00	0.0000E+00
0.73771	5.1397E+00	0.0000E+00
0.73913	5.1435E+00	0.0000E+00
0.74054	5.1511E+00	0.0000E+00
0.74196	5.1549E+00	0.0000E+00
0.74338	5.1575E+00	0.0000E+00
0.74480	5.1613E+00	0.0000E+00
0.74621	5.1651E+00	0.0000E+00
0.74763	5.1638E+00	0.0000E+00
0.74905	5.1625E+00	0.0000E+00
0.75047	5.1613E+00	0.0000E+00
0.75189	5.1600E+00	0.0000E+00
0.75331	5.1575E+00	0.0000E+00
0.75473	5.1575E+00	0.0000E+00
0.75615	5.1562E+00	0.0000E+00
0.75757	5.1524E+00	0.0000E+00
0.75900	5.1473E+00	0.0000E+00
0.76042	5.1422E+00	0.0000E+00
0.76184	5.1384E+00	0.0000E+00
0.76326	5.1384E+00	0.0000E+00
0.76469	5.1384E+00	0.0000E+00
0.76611	5.1384E+00	0.0000E+00
0.76753	5.1410E+00	0.0000E+00
0.76896	5.1384E+00	0.0000E+00
0.77038	5.1295E+00	0.0000E+00
0.77181	5.1219E+00	0.0000E+00
0.77323	5.1168E+00	0.0000E+00
0.77466	5.1143E+00	0.0000E+00
0.77609	5.1117E+00	0.0000E+00
0.77751	5.1092E+00	0.0000E+00
0.77894	5.1029E+00	0.0000E+00
0.78037	5.1003E+00	0.0000E+00
0.78179	5.0978E+00	0.0000E+00
0.78322	5.0952E+00	0.0000E+00
0.78465	5.0940E+00	0.0000E+00
0.78608	5.0940E+00	0.0000E+00
0.78751	5.0889E+00	0.0000E+00
0.78894	5.0800E+00	0.0000E+00
0.79037	5.0737E+00	0.0000E+00
0.79179	5.0698E+00	0.0000E+00
0.79323	5.0635E+00	0.0000E+00
0.79466	5.0559E+00	0.0000E+00
0.79609	5.0533E+00	0.0000E+00
0.79752	5.0521E+00	0.0000E+00
0.79895	5.0571E+00	0.0000E+00
0.80038	5.0673E+00	0.0000E+00
0.80181	5.0838E+00	0.0000E+00
0.80325	5.0940E+00	0.0000E+00
0.80468	5.1003E+00	0.0000E+00
0.80611	5.0978E+00	0.0000E+00
0.80755	5.0838E+00	0.0000E+00
0.80898	5.0648E+00	0.0000E+00
0.81042	5.0508E+00	0.0000E+00
0.81185	5.0368E+00	0.0000E+00
0.81329	5.0229E+00	0.0000E+00
0.81472	5.0127E+00	0.0000E+00
0.81616	5.0127E+00	0.0000E+00
0.81759	5.0038E+00	0.0000E+00
0.81903	4.9873E+00	0.0000E+00
0.82047	4.9784E+00	0.0000E+00
0.82190	4.9657E+00	0.0000E+00
0.82334	4.9543E+00	0.0000E+00
0.82478	4.9746E+00	0.0000E+00
0.82622	4.9987E+00	0.0000E+00
0.82765	5.0051E+00	0.0000E+00
0.82909	5.0038E+00	0.0000E+00
0.83053	4.9810E+00	0.0000E+00
0.83197	4.9403E+00	0.0000E+00
0.83341	4.9238E+00	0.0000E+00
0.83485	4.9238E+00	0.0000E+00
0.83629	4.9352E+00	0.0000E+00
0.83773	4.9746E+00	0.0000E+00
0.83917	5.0241E+00	0.0000E+00
0.84062	5.0610E+00	0.0000E+00
0.84206	5.0838E+00	0.0000E+00
0.84350	5.0952E+00	0.0000E+00
0.84494	5.0787E+00	0.0000E+00
0.84638	5.0622E+00	0.0000E+00
0.84783	5.0241E+00	0.0000E+00
0.84927	4.9784E+00	0.0000E+00
0.85071	4.9416E+00	0.0000E+00
0.85216	4.9276E+00	0.0000E+00
0.85360	4.9200E+00	0.0000E+00
0.85505	4.9771E+00	0.0000E+00
0.85649	5.1714E+00	0.0000E+00
