Material: organic / (C8H8)n - polystyren / Myers
Optical constants. T. L. Myers, R. G. Tonkyn, T. O. Danby, M. S. Taubman, B. E. Bernacki, J. C. Birnbaum, S. W. Sharpe, T. J. Johnson. Accurate measurement of the optical constants n and k for a series of 57 inorganic and organic liquids for optical modeling and detection, Appl. Spectrosc. 72, 535-550 (2018) (see Supplemental Material for numerical data)
Comments: Isopropanol. 26 Â°C.
Specs: {"n_absolute": true, "wavelength_vacuum": true, "temperature": "26 Â°C"}
wavelength (um)	n	k
1.28246E+00	1.55371E+00	4.92915E-05
1.28556E+00	1.55375E+00	4.90957E-05
1.28868E+00	1.55376E+00	4.90332E-05
1.29181E+00	1.55377E+00	4.92667E-05
1.29495E+00	1.55377E+00	4.93892E-05
1.29812E+00	1.55377E+00	4.92109E-05
1.30129E+00	1.55377E+00	4.91559E-05
1.30448E+00	1.55377E+00	4.92115E-05
1.30769E+00	1.55377E+00	4.87929E-05
1.31091E+00	1.55377E+00	4.83704E-05
1.31415E+00	1.55377E+00	4.83987E-05
1.31741E+00	1.55377E+00	4.91035E-05
1.32068E+00	1.55377E+00	4.91423E-05
1.32397E+00	1.55377E+00	4.93775E-05
1.32727E+00	1.55377E+00	4.93475E-05
1.33059E+00	1.55376E+00	4.98646E-05
1.33393E+00	1.55376E+00	4.94257E-05
1.33728E+00	1.55376E+00	4.98088E-05
1.34066E+00	1.55376E+00	4.97258E-05
1.34404E+00	1.55376E+00	5.00022E-05
1.34745E+00	1.55376E+00	5.06771E-05
1.35087E+00	1.55376E+00	4.94098E-05
1.35431E+00	1.55375E+00	5.00589E-05
1.35777E+00	1.55375E+00	5.03354E-05
1.36124E+00	1.55375E+00	5.03794E-05
1.36474E+00	1.55375E+00	5.06409E-05
1.36825E+00	1.55375E+00	5.01767E-05
1.37178E+00	1.55374E+00	5.03019E-05
1.37533E+00	1.55374E+00	5.29321E-05
1.37889E+00	1.55374E+00	5.33604E-05
1.38248E+00	1.55374E+00	5.36020E-05
1.38608E+00	1.55374E+00	5.50992E-05
1.38970E+00	1.55374E+00	5.66828E-05
1.39334E+00	1.55373E+00	5.70328E-05
1.39700E+00	1.55373E+00	5.66978E-05
1.40068E+00	1.55373E+00	5.63745E-05
1.40438E+00	1.55373E+00	5.62441E-05
1.40810E+00	1.55373E+00	5.66641E-05
1.41184E+00	1.55373E+00	5.72500E-05
1.41559E+00	1.55373E+00	5.67514E-05
1.41937E+00	1.55372E+00	5.58296E-05
1.42317E+00	1.55372E+00	5.53110E-05
1.42699E+00	1.55372E+00	5.48643E-05
1.43083E+00	1.55372E+00	5.47895E-05
1.43469E+00	1.55371E+00	5.44568E-05
1.43857E+00	1.55371E+00	5.40077E-05
1.44247E+00	1.55371E+00	5.36171E-05
1.44639E+00	1.55371E+00	5.32263E-05
1.45034E+00	1.55370E+00	5.23339E-05
1.45430E+00	1.55370E+00	5.18218E-05
1.45829E+00	1.55370E+00	5.16586E-05
1.46230E+00	1.55370E+00	5.16841E-05
1.46633E+00	1.55369E+00	5.16109E-05
1.47039E+00	1.55369E+00	5.14175E-05
1.47446E+00	1.55369E+00	5.12112E-05
1.47856E+00	1.55368E+00	5.09690E-05
1.48269E+00	1.55368E+00	5.07382E-05
1.48683E+00	1.55368E+00	5.08900E-05
1.49100E+00	1.55367E+00	5.05630E-05
1.49519E+00	1.55367E+00	5.00656E-05
1.49941E+00	1.55367E+00	4.98336E-05
1.50365E+00	1.55366E+00	4.93861E-05
1.50791E+00	1.55366E+00	4.88099E-05
1.51220E+00	1.55366E+00	4.87478E-05
1.51651E+00	1.55365E+00	4.86263E-05
1.52085E+00	1.55365E+00	4.81659E-05
1.52521E+00	1.55365E+00	4.78713E-05
1.52959E+00	1.55364E+00	4.77948E-05
1.53401E+00	1.55364E+00	4.72960E-05
1.53844E+00	1.55363E+00	4.68606E-05
1.54291E+00	1.55363E+00	4.65701E-05
1.54740E+00	1.55363E+00	4.63014E-05
1.55191E+00	1.55362E+00	4.59143E-05
1.55645E+00	1.55362E+00	4.58319E-05
1.56102E+00	1.55361E+00	4.52309E-05
1.56562E+00	1.55361E+00	4.51221E-05
1.57024E+00	1.55360E+00	4.50036E-05
1.57489E+00	1.55360E+00	4.50416E-05
1.57957E+00	1.55359E+00	4.44094E-05
1.58427E+00	1.55358E+00	4.48986E-05
1.58901E+00	1.55358E+00	4.53056E-05
1.59377E+00	1.55357E+00	4.53613E-05
1.59856E+00	1.55357E+00	4.58395E-05
1.60338E+00	1.55356E+00	4.55325E-05
1.60823E+00	1.55355E+00	4.50824E-05
1.61310E+00	1.55354E+00	4.60809E-05
1.61801E+00	1.55353E+00	4.82338E-05
1.62295E+00	1.55352E+00	5.32967E-05
1.62792E+00	1.55351E+00	6.10920E-05
1.63292E+00	1.55351E+00	6.70466E-05
1.63794E+00	1.55351E+00	7.20346E-05
1.64300E+00	1.55350E+00	7.29995E-05
1.64810E+00	1.55350E+00	7.34678E-05
1.65322E+00	1.55348E+00	6.61229E-05
1.65837E+00	1.55345E+00	7.94713E-05
1.66356E+00	1.55343E+00	1.09375E-04
1.66878E+00	1.55342E+00	1.47000E-04
1.67403E+00	1.55344E+00	1.97503E-04
1.67932E+00	1.55349E+00	2.10803E-04
1.68464E+00	1.55353E+00	2.01468E-04
1.68999E+00	1.55354E+00	1.86259E-04
1.69538E+00	1.55356E+00	1.69720E-04
1.70080E+00	1.55357E+00	1.38076E-04
1.70626E+00	1.55355E+00	1.16537E-04
1.71175E+00	1.55354E+00	1.08835E-04
1.71728E+00	1.55353E+00	1.05246E-04
1.72284E+00	1.55352E+00	1.07034E-04
1.72844E+00	1.55352E+00	1.03675E-04
1.73408E+00	1.55352E+00	9.21240E-05
1.73975E+00	1.55351E+00	8.17157E-05
1.74546E+00	1.55349E+00	7.90890E-05
1.75121E+00	1.55348E+00	8.79759E-05
1.75699E+00	1.55347E+00	9.28898E-05
1.76282E+00	1.55347E+00	9.83786E-05
1.76868E+00	1.55348E+00	9.34063E-05
1.77458E+00	1.55347E+00	8.35903E-05
1.78052E+00	1.55346E+00	7.84937E-05
1.78650E+00	1.55345E+00	7.91515E-05
1.79252E+00	1.55344E+00	8.12176E-05
1.79859E+00	1.55343E+00	7.95142E-05
1.80469E+00	1.55343E+00	8.05668E-05
1.81083E+00	1.55342E+00	8.08733E-05
1.81702E+00	1.55342E+00	8.03364E-05
1.82325E+00	1.55341E+00	7.70618E-05
1.82952E+00	1.55340E+00	7.51920E-05
1.83584E+00	1.55339E+00	7.48160E-05
1.84220E+00	1.55338E+00	7.49135E-05
1.84860E+00	1.55338E+00	7.53738E-05
1.85505E+00	1.55337E+00	7.58165E-05
1.86154E+00	1.55336E+00	7.61764E-05
1.86808E+00	1.55336E+00	7.44122E-05
1.87466E+00	1.55335E+00	7.18269E-05
1.88130E+00	1.55334E+00	7.03440E-05
1.88797E+00	1.55333E+00	7.02722E-05
1.89470E+00	1.55332E+00	6.93155E-05
1.90147E+00	1.55331E+00	6.81971E-05
1.90830E+00	1.55330E+00	6.91523E-05
1.91517E+00	1.55329E+00	6.90923E-05
1.92209E+00	1.55328E+00	6.75750E-05
1.92906E+00	1.55327E+00	6.74060E-05
1.93609E+00	1.55326E+00	6.65823E-05
1.94316E+00	1.55325E+00	6.69918E-05
1.95029E+00	1.55324E+00	6.77167E-05
1.95746E+00	1.55323E+00	6.73161E-05
1.96469E+00	1.55322E+00	6.65374E-05
1.97198E+00	1.55321E+00	6.65485E-05
1.97932E+00	1.55319E+00	6.65166E-05
1.98671E+00	1.55318E+00	6.65634E-05
1.99416E+00	1.55317E+00	6.60040E-05
2.00167E+00	1.55316E+00	6.66881E-05
2.00923E+00	1.55315E+00	6.78669E-05
2.01685E+00	1.55313E+00	6.70548E-05
2.02453E+00	1.55312E+00	6.76114E-05
2.03226E+00	1.55310E+00	6.73329E-05
2.04006E+00	1.55309E+00	6.74245E-05
2.04792E+00	1.55307E+00	6.82289E-05
2.05583E+00	1.55306E+00	6.91287E-05
2.06381E+00	1.55304E+00	7.09499E-05
2.07185E+00	1.55302E+00	7.22017E-05
2.07995E+00	1.55300E+00	7.10682E-05
2.08812E+00	1.55298E+00	7.20434E-05
2.09635E+00	1.55296E+00	7.72013E-05
2.10465E+00	1.55293E+00	7.93519E-05
2.11301E+00	1.55290E+00	8.18903E-05
2.12144E+00	1.55286E+00	9.58969E-05
2.12993E+00	1.55281E+00	1.12761E-04
2.13850E+00	1.55272E+00	2.18931E-04
2.14713E+00	1.55289E+00	3.06822E-04
2.15583E+00	1.55283E+00	2.40144E-04
2.16461E+00	1.55287E+00	3.18743E-04
2.17346E+00	1.55299E+00	3.07949E-04
2.18237E+00	1.55292E+00	2.01319E-04
2.19137E+00	1.55299E+00	2.13686E-04
2.20043E+00	1.55293E+00	1.39735E-04
2.20958E+00	1.55287E+00	1.32566E-04
2.21879E+00	1.55284E+00	1.35143E-04
2.22809E+00	1.55281E+00	1.20859E-04
2.23746E+00	1.55276E+00	1.16009E-04
2.24692E+00	1.55271E+00	1.21379E-04
2.25645E+00	1.55267E+00	1.39166E-04
2.26606E+00	1.55262E+00	1.69846E-04
2.27576E+00	1.55260E+00	2.10482E-04
2.28554E+00	1.55257E+00	2.30748E-04
2.29541E+00	1.55253E+00	2.94005E-04
2.30536E+00	1.55256E+00	3.69100E-04
2.31539E+00	1.55264E+00	3.32177E-04
2.32552E+00	1.55258E+00	2.75972E-04
2.33573E+00	1.55249E+00	3.08349E-04
2.34603E+00	1.55247E+00	4.22610E-04
2.35643E+00	1.55258E+00	4.61856E-04
2.36692E+00	1.55259E+00	4.08783E-04
2.37750E+00	1.55259E+00	4.04865E-04
2.38817E+00	1.55258E+00	3.45925E-04
2.39895E+00	1.55253E+00	3.20553E-04
2.40982E+00	1.55247E+00	3.10600E-04
2.42078E+00	1.55238E+00	3.37794E-04
2.43185E+00	1.55233E+00	3.86878E-04
2.44302E+00	1.55223E+00	4.32544E-04
2.45430E+00	1.55212E+00	6.44037E-04
2.46568E+00	1.55236E+00	9.68952E-04
2.47716E+00	1.55270E+00	1.04812E-03
2.48875E+00	1.55297E+00	5.22521E-04
2.50046E+00	1.55275E+00	3.90319E-04
2.51227E+00	1.55263E+00	3.11418E-04
2.52419E+00	1.55256E+00	2.92556E-04
2.53623E+00	1.55248E+00	2.90266E-04
2.54838E+00	1.55245E+00	2.87674E-04
2.56065E+00	1.55240E+00	2.76288E-04
2.57304E+00	1.55235E+00	2.66516E-04
2.58555E+00	1.55230E+00	2.64384E-04
2.59818E+00	1.55225E+00	2.63613E-04
2.61094E+00	1.55220E+00	2.79286E-04
2.62382E+00	1.55218E+00	2.87731E-04
2.63683E+00	1.55216E+00	2.64428E-04
2.64997E+00	1.55209E+00	2.44645E-04
2.66324E+00	1.55205E+00	2.38644E-04
2.67664E+00	1.55197E+00	2.28692E-04
2.69018E+00	1.55193E+00	2.54427E-04
2.70386E+00	1.55187E+00	2.73038E-04
2.71767E+00	1.55180E+00	2.65340E-04
2.73163E+00	1.55170E+00	2.83005E-04
2.74573E+00	1.55183E+00	3.65346E-04
2.75998E+00	1.55170E+00	2.97484E-04
2.77438E+00	1.55168E+00	1.89928E-04
2.78893E+00	1.55157E+00	1.70936E-04
2.80363E+00	1.55147E+00	1.53678E-04
2.81849E+00	1.55136E+00	1.48207E-04
2.83351E+00	1.55125E+00	1.53784E-04
2.84869E+00	1.55115E+00	1.62329E-04
2.86403E+00	1.55104E+00	1.77113E-04
2.87953E+00	1.55094E+00	1.90079E-04
2.89521E+00	1.55083E+00	1.90241E-04
2.91106E+00	1.55074E+00	1.98525E-04
2.92708E+00	1.55061E+00	1.61711E-04
2.94328E+00	1.55046E+00	1.60007E-04
2.95966E+00	1.55031E+00	1.43028E-04
2.97622E+00	1.55011E+00	1.25065E-04
2.99297E+00	1.54990E+00	1.29707E-04
3.00991E+00	1.54968E+00	1.33893E-04
3.02704E+00	1.54944E+00	1.39827E-04
3.04437E+00	1.54917E+00	1.51907E-04
3.06189E+00	1.54886E+00	1.66321E-04
3.07963E+00	1.54852E+00	1.74312E-04
3.09756E+00	1.54810E+00	1.89363E-04
3.11571E+00	1.54761E+00	2.09451E-04
3.13407E+00	1.54701E+00	2.84360E-04
3.15265E+00	1.54627E+00	3.77082E-04
3.17145E+00	1.54554E+00	4.74506E-04
3.19047E+00	1.54416E+00	5.33066E-04
3.20973E+00	1.54164E+00	1.10895E-03
3.22922E+00	1.54008E+00	3.01877E-03
3.24895E+00	1.54297E+00	8.40789E-03
3.26892E+00	1.54475E+00	1.55131E-02
3.28913E+00	1.53821E+00	7.76979E-03
3.30960E+00	1.56249E+00	2.30008E-02
3.33033E+00	1.54945E+00	6.88669E-03
3.35131E+00	1.54243E+00	3.76664E-03
3.37256E+00	1.53530E+00	1.57290E-02
3.39409E+00	1.53809E+00	1.85274E-02
3.41589E+00	1.54476E+00	4.55426E-02
3.43797E+00	1.57453E+00	2.94830E-02
3.46034E+00	1.57150E+00	1.31054E-02
3.48300E+00	1.56638E+00	1.14808E-02
3.50596E+00	1.56607E+00	1.63196E-02
3.52923E+00	1.57148E+00	3.78734E-03
3.55280E+00	1.56567E+00	1.65963E-03
3.57670E+00	1.56334E+00	1.14614E-03
3.60092E+00	1.56177E+00	8.99252E-04
3.62546E+00	1.56050E+00	6.65430E-04
3.65035E+00	1.55947E+00	6.98024E-04
3.67558E+00	1.55892E+00	8.00329E-04
3.70115E+00	1.55840E+00	6.97709E-04
3.72709E+00	1.55793E+00	7.17798E-04
3.75340E+00	1.55755E+00	6.85399E-04
3.78007E+00	1.55718E+00	6.90614E-04
3.80713E+00	1.55704E+00	7.65904E-04
3.83458E+00	1.55664E+00	7.34086E-04
3.86243E+00	1.55650E+00	6.19905E-04
3.89069E+00	1.55635E+00	5.78632E-04
3.91936E+00	1.55610E+00	5.60383E-04
3.94846E+00	1.55592E+00	5.00622E-04
3.97800E+00	1.55571E+00	5.27971E-04
4.00797E+00	1.55559E+00	4.92183E-04
4.03841E+00	1.55545E+00	4.34478E-04
4.06931E+00	1.55524E+00	3.73462E-04
4.10069E+00	1.55506E+00	3.71325E-04
4.13255E+00	1.55488E+00	3.52466E-04
4.16491E+00	1.55471E+00	3.83008E-04
4.19779E+00	1.55454E+00	3.88725E-04
4.23118E+00	1.55436E+00	4.91429E-04
4.26512E+00	1.55418E+00	5.76383E-04
4.29960E+00	1.55443E+00	4.64061E-04
4.33464E+00	1.55441E+00	5.33594E-04
4.37026E+00	1.55419E+00	3.81157E-04
4.40647E+00	1.55397E+00	3.43315E-04
4.44329E+00	1.55390E+00	3.92876E-04
4.48072E+00	1.55377E+00	3.06910E-04
4.51879E+00	1.55360E+00	2.91867E-04
4.55752E+00	1.55345E+00	2.69437E-04
4.59691E+00	1.55336E+00	2.51928E-04
4.63699E+00	1.55318E+00	2.22261E-04
4.67778E+00	1.55302E+00	2.01648E-04
4.71929E+00	1.55284E+00	1.91802E-04
4.76154E+00	1.55266E+00	1.72564E-04
4.80455E+00	1.55244E+00	1.62219E-04
4.84835E+00	1.55222E+00	1.71425E-04
4.89296E+00	1.55195E+00	1.72182E-04
4.93840E+00	1.55165E+00	2.08108E-04
4.98468E+00	1.55126E+00	2.70988E-04
5.03184E+00	1.55070E+00	5.74061E-04
5.07991E+00	1.54969E+00	1.22155E-03
5.12890E+00	1.55020E+00	3.12826E-03
5.17884E+00	1.55307E+00	1.55648E-03
5.22977E+00	1.55149E+00	5.72131E-04
5.28171E+00	1.55010E+00	1.44732E-03
5.33469E+00	1.55094E+00	2.91048E-03
5.38874E+00	1.55246E+00	1.19555E-03
5.44390E+00	1.55076E+00	5.77477E-04
5.50020E+00	1.54973E+00	1.85378E-03
5.55768E+00	1.55184E+00	3.15514E-03
5.61637E+00	1.55095E+00	7.95115E-04
5.67631E+00	1.54974E+00	1.03441E-03
5.73755E+00	1.55053E+00	2.14427E-03
5.80013E+00	1.55019E+00	7.71854E-04
5.86408E+00	1.54906E+00	6.66194E-04
5.92946E+00	1.54807E+00	9.60313E-04
5.99631E+00	1.54772E+00	1.51667E-03
6.06469E+00	1.54692E+00	8.91848E-04
6.13465E+00	1.54431E+00	8.59027E-04
6.20624E+00	1.53656E+00	3.81724E-03
6.27952E+00	1.55517E+00	6.63960E-03
6.35455E+00	1.55143E+00	1.91165E-03
6.43139E+00	1.54598E+00	1.41222E-03
6.51012E+00	1.54426E+00	2.29570E-03
6.59080E+00	1.53759E+00	1.71954E-03
6.67350E+00	1.50495E+00	1.92722E-02
6.75831E+00	1.55387E+00	5.57270E-03
6.84530E+00	1.52782E+00	1.96537E-02
6.93455E+00	1.58258E+00	2.25589E-02
7.02617E+00	1.56530E+00	2.85378E-03
7.12023E+00	1.55637E+00	2.37234E-03
7.21686E+00	1.54796E+00	8.52372E-03
7.31613E+00	1.55928E+00	1.04035E-02
7.41818E+00	1.55852E+00	7.86720E-03
7.52312E+00	1.55691E+00	7.31666E-03
7.63107E+00	1.55733E+00	6.65580E-03
7.74216E+00	1.55719E+00	4.61072E-03
7.85653E+00	1.55648E+00	3.14890E-03
7.97433E+00	1.55441E+00	2.44588E-03
8.09572E+00	1.55336E+00	2.46050E-03
8.22086E+00	1.55140E+00	2.71712E-03
8.34993E+00	1.55075E+00	4.80115E-03
8.48312E+00	1.55422E+00	7.53221E-03
8.62063E+00	1.54914E+00	5.48755E-03
8.76267E+00	1.55350E+00	2.35396E-03
8.90946E+00	1.54967E+00	1.98866E-03
9.06126E+00	1.54800E+00	2.76128E-03
9.21832E+00	1.54424E+00	6.05876E-03
9.38092E+00	1.55161E+00	1.11594E-02
9.54937E+00	1.54718E+00	4.58869E-03
9.72397E+00	1.55211E+00	2.73647E-02
9.90507E+00	1.55396E+00	7.51622E-03
1.00931E+01	1.55149E+00	5.25758E-03
1.02883E+01	1.54951E+00	5.85932E-03
1.04913E+01	1.55076E+00	4.37926E-03
1.07024E+01	1.54849E+00	3.42184E-03
1.09222E+01	1.54079E+00	6.44971E-03
1.11512E+01	1.55269E+00	4.34134E-03
1.13900E+01	1.54502E+00	1.36591E-03
1.16393E+01	1.53940E+00	1.34067E-03
1.18997E+01	1.53735E+00	6.19439E-03
1.21721E+01	1.53008E+00	1.98788E-03
1.24572E+01	1.51869E+00	3.09566E-03
1.27560E+01	1.49524E+00	1.28832E-02
1.30694E+01	1.48406E+00	7.55923E-02
1.33987E+01	1.57813E+00	8.42039E-02
1.37450E+01	1.54075E+00	1.44607E-02
1.41097E+01	1.38515E+00	5.25918E-02
1.44942E+01	1.75597E+00	3.41385E-02
1.49003E+01	1.62888E+00	6.84549E-03
1.53298E+01	1.60169E+00	1.14524E-03
1.57848E+01	1.58374E+00	2.15934E-03
1.62676E+01	1.57824E+00	5.40619E-03
1.67809E+01	1.56857E+00	6.14878E-03
1.73276E+01	1.55817E+00	1.49066E-02
1.79112E+01	1.56261E+00	3.16006E-02
1.85354E+01	1.59173E+00	5.09772E-02
1.92048E+01	1.59585E+00	1.23057E-02
1.99242E+01	1.58593E+00	6.25192E-03
2.06997E+01	1.58129E+00	6.15320E-03
2.15380E+01	1.57773E+00	7.49777E-03
2.24471E+01	1.57394E+00	8.55004E-03
2.34363E+01	1.57313E+00	1.37920E-02
2.45167E+01	1.58094E+00	2.56269E-02
