Material: organic / (C8H8)n - polystyren / Zhang
Optical constants. 1) X. Zhang, J. Qiu, X. Li, J. Zhao, L. Liu. Complex refractive indices measurements of polymers in visible and near-infrared bands, Appl. Opt. 59, 2337-2344 (2020) (0.4-2 µm)2) X. Zhang, J. Qiu, J. Zhao, X. Li, L. Liu. Complex refractive indices measurements of polymers in infrared bands, J. Quant. Spectrosc. Radiat. Transf. 252, 107063 (2020) (2-20 µm)
Comments: Normal temperature and pressure. Manufacturer : ShanghaiHuineng Industry, China.
Specs: {"n_absolute": true, "wavelength_vacuum": false}
wavelength (um)	n	k
0.40	1.62552	8.13E-07
0.42	1.61834	6.82E-07
0.44	1.61279	6.50E-07
0.46	1.60797	6.12E-07
0.48	1.60372	6.09E-07
0.50	1.60021	6.11E-07
0.52	1.59721	5.72E-07
0.54	1.59443	5.70E-07
0.56	1.59217	6.07E-07
0.58	1.58996	5.95E-07
0.60	1.58820	6.36E-07
0.62	1.58653	5.93E-07
0.64	1.58493	6.27E-07
0.66	1.58359	5.86E-07
0.68	1.58237	5.64E-07
0.70	1.58128	5.64E-07
0.72	1.58022	5.55E-07
0.74	1.57926	5.67E-07
0.76	1.57821	5.98E-07
0.78	1.57746	5.46E-07
0.80	1.57674	5.54E-07
0.82	1.57618	4.48E-07
0.84	1.57563	5.34E-07
0.86	1.57513	5.29E-07
0.88	1.57451	9.11E-07
0.90	1.57409	5.35E-07
0.92	1.57362	3.93E-07
0.94	1.57315	8.16E-07
0.96	1.57285	4.71E-07
0.98	1.57231	2.34E-07
1.00	1.57211	3.49E-07
1.02	1.57197	7.39E-07
1.04	1.57013	9.61E-07
1.06	1.56958	9.36E-07
1.08	1.56938	8.95E-07
1.10	1.56904	1.10E-06
1.12	1.56854	1.88E-06
1.14	1.56779	1.13E-05
1.16	1.56801	4.52E-06
1.18	1.56822	2.45E-06
1.20	1.56767	4.60E-06
1.22	1.56707	4.03E-06
1.24	1.56665	2.06E-06
1.26	1.56667	1.66E-06
1.28	1.56712	1.27E-06
1.30	1.56571	1.51E-06
1.32	1.56600	1.57E-06
1.34	1.56593	2.03E-06
1.36	1.56572	2.05E-06
1.38	1.56551	4.00E-06
1.40	1.56579	5.05E-06
1.42	1.56534	6.12E-06
1.44	1.56510	5.08E-06
1.46	1.56532	4.01E-06
1.48	1.56510	4.65E-06
1.50	1.56463	3.06E-06
1.52	1.56419	2.64E-06
1.54	1.56478	2.25E-06
1.56	1.56451	1.96E-06
1.58	1.56449	2.41E-06
1.60	1.56384	3.32E-06
1.62	1.56447	8.11E-06
1.64	1.56432	2.68E-05
1.66	1.56391	3.87E-05
1.68	1.56376	1.60E-04
1.70	1.56341	8.46E-05
1.72	1.56363	4.80E-05
1.74	1.56383	2.73E-05
1.76	1.56349	4.17E-05
1.78	1.56328	2.72E-05
1.80	1.56314	2.91E-05
1.82	1.56293	2.72E-05
1.84	1.56296	2.48E-05
1.86	1.56279	2.68E-05
1.88	1.56337	2.18E-05
1.90	1.56302	2.11E-05
1.92	1.56270	1.97E-05
1.94	1.56262	1.85E-05
1.96	1.56273	1.84E-05
1.98	1.56332	1.79E-05
2.00	1.56256	1.76E-05
2.0190	1.57816	2.45E-05
2.0381	1.57637	3.69E-05
2.0575	1.57491	3.91E-05
2.0773	1.57276	4.13E-05
2.0975	1.56960	4.60E-05
2.1180	1.56087	5.84E-05
2.1390	1.56039	1.00E-04
2.1568	1.55891	3.89E-03
2.1785	1.55899	3.59E-03
2.1970	1.55989	4.75E-03
2.2196	1.55973	9.05E-05
2.2387	1.55943	7.97E-05
2.2582	1.55937	8.63E-05
2.2781	1.55863	3.39E-03
2.2983	1.55770	4.10E-03
2.3188	1.55974	3.62E-03
2.3398	1.55890	3.76E-03
2.3568	1.55953	4.27E-03
2.3784	1.55910	3.70E-03
2.3960	1.55926	3.73E-03
2.4183	1.56061	3.66E-03
2.4365	1.55879	3.74E-03
2.4596	1.55785	2.89E-03
2.4784	1.55913	4.51E-03
2.4975	1.55826	3.47E-03
2.5169	1.55819	2.96E-03
2.5366	1.55789	3.15E-03
2.5567	1.55903	4.06E-03
2.5770	1.56012	3.91E-03
2.5976	1.55931	2.93E-03
2.6186	1.55816	3.37E-03
2.6400	1.55723	4.26E-03
2.6562	1.55653	3.08E-03
2.6782	1.55659	3.67E-03
2.6949	1.55634	2.73E-03
2.7175	1.55711	4.19E-03
2.7347	1.55843	3.54E-03
2.7579	1.55683	2.55E-03
2.7756	1.55730	2.56E-03
2.7996	1.55649	3.24E-03
2.8179	1.55696	3.56E-03
2.8364	1.55635	3.54E-03
2.8551	1.55686	3.48E-03
2.8741	1.55694	3.32E-03
2.8998	1.55591	3.68E-03
2.9194	1.55621	1.36E-04
2.9393	1.55658	1.23E-04
2.9594	1.55598	1.15E-04
2.9798	1.55631	1.08E-04
2.9936	1.55639	1.13E-04
3.0145	1.55535	1.20E-04
3.0357	1.55549	1.29E-04
3.0571	1.55478	1.86E-03
3.0789	1.55481	2.49E-03
3.0936	1.55461	2.56E-03
3.1159	1.55343	2.69E-03
3.1386	1.55237	2.89E-03
3.1538	1.55295	2.36E-03
3.1770	1.55058	2.97E-03
3.1927	1.54870	3.14E-03
3.2164	1.54672	4.25E-03
3.2325	1.54574	8.03E-03
3.2569	1.54742	1.33E-02
3.2733	1.54943	1.40E-02
3.2983	1.55034	2.11E-02
3.3152	1.56264	1.75E-02
3.3322	1.56116	7.90E-03
3.3581	1.55359	6.23E-03
3.3756	1.54799	8.48E-03
3.3933	1.54232	1.59E-02
3.4111	1.54738	3.17E-02
3.4383	1.57444	2.69E-02
3.4566	1.57450	1.44E-02
3.4751	1.56992	9.74E-03
3.4939	1.56622	1.14E-02
3.5128	1.57044	1.15E-02
3.5320	1.57146	5.45E-03
3.5513	1.56806	3.48E-03
3.5709	1.56652	3.21E-03
3.5907	1.56457	3.27E-03
3.6107	1.56381	2.84E-03
3.6309	1.56280	2.29E-03
3.6513	1.56192	2.64E-03
3.6720	1.56127	3.06E-03
3.6930	1.56128	2.92E-03
3.7141	1.56071	2.95E-03
3.7355	1.56092	3.38E-03
3.7572	1.56050	3.28E-03
3.7791	1.56028	3.11E-03
3.8013	1.56034	3.03E-03
3.8237	1.55957	3.02E-03
3.8464	1.55970	3.19E-03
3.8693	1.55972	3.26E-03
3.8926	1.55896	3.26E-03
3.9161	1.55887	2.66E-03
3.9399	1.55866	2.73E-03
3.9640	1.55858	2.97E-03
3.9884	1.55839	3.09E-03
4.0131	1.55861	3.26E-03
4.0381	1.55822	2.83E-03
4.0634	1.55792	2.84E-03
4.0890	1.55757	2.86E-03
4.1150	1.55716	2.96E-03
4.1413	1.55739	2.89E-03
4.1679	1.55724	2.58E-03
4.1949	1.55713	3.23E-03
4.2222	1.55757	3.66E-03
4.2499	1.55643	3.79E-03
4.2780	1.55630	3.79E-03
4.3064	1.55771	3.62E-03
4.3352	1.55666	2.97E-03
4.3644	1.55657	2.93E-03
4.3940	1.55627	3.02E-03
4.4240	1.55644	2.85E-03
4.4544	1.55641	2.50E-03
4.4852	1.55621	2.99E-03
4.5165	1.55585	3.20E-03
4.5482	1.55570	3.18E-03
4.5803	1.55531	3.05E-03
4.6129	1.55533	2.93E-03
4.6460	1.55495	2.84E-03
4.6795	1.55464	2.46E-03
4.7136	1.55470	3.05E-03
4.7481	1.55408	3.10E-03
4.7831	1.55415	2.70E-03
4.8187	1.55420	2.98E-03
4.8548	1.55410	3.06E-03
4.8914	1.55330	3.04E-03
4.9286	1.55334	2.92E-03
4.9664	1.55286	3.25E-03
5.0047	1.55226	3.02E-03
5.0437	1.55185	3.41E-03
5.0832	1.55079	4.37E-03
5.1234	1.55143	5.74E-03
5.1643	1.55309	5.86E-03
5.2057	1.55291	4.16E-03
5.2479	1.55154	3.29E-03
5.2907	1.55092	4.43E-03
5.3343	1.55189	5.73E-03
5.3785	1.55289	4.66E-03
5.4235	1.55176	3.41E-03
5.4693	1.54993	4.02E-03
5.5159	1.55002	5.09E-03
5.5632	1.55129	5.64E-03
5.6114	1.55129	3.69E-03
5.6604	1.54767	5.41E-03
5.7103	1.54690	1.36E-02
5.7610	1.55263	1.27E-02
5.8127	1.55303	8.33E-03
5.8653	1.55166	6.26E-03
5.9188	1.54980	5.72E-03
5.9734	1.54902	5.58E-03
6.0290	1.54880	4.87E-03
6.0856	1.54720	4.69E-03
6.1433	1.54460	4.41E-03
6.2020	1.53801	9.80E-03
6.2620	1.55100	1.87E-02
6.3231	1.55355	9.44E-03
6.3854	1.54999	4.61E-03
6.4489	1.54569	5.46E-03
6.5137	1.54380	4.91E-03
6.5798	1.53885	4.70E-03
6.6473	1.52191	1.52E-02
6.7162	1.55656	3.71E-02
6.7865	1.54797	7.57E-03
6.8583	1.53216	3.45E-02
6.9317	1.57473	3.36E-02
7.0066	1.56564	8.67E-03
7.0832	1.55686	5.55E-03
7.1615	1.55165	6.64E-03
7.2415	1.54836	1.39E-02
7.3233	1.55292	1.69E-02
7.4070	1.55372	1.24E-02
7.4926	1.55139	1.03E-02
7.5803	1.55236	1.03E-02
7.6700	1.55343	1.05E-02
7.7618	1.55192	1.04E-02
7.8559	1.54956	9.62E-03
7.9523	1.54331	1.72E-02
8.0511	1.54343	2.89E-02
8.1524	1.55321	2.98E-02
8.2562	1.55640	2.09E-02
8.3628	1.55301	1.49E-02
8.4721	1.55104	1.45E-02
8.5843	1.54998	1.45E-02
8.6995	1.55147	1.35E-02
8.8179	1.55022	1.00E-02
8.9395	1.54586	1.15E-02
9.0645	1.54190	1.28E-02
9.1931	1.53765	1.90E-02
9.3254	1.54121	3.06E-02
9.4615	1.55001	3.11E-02
9.6017	1.55102	3.11E-02
9.7461	1.56222	3.54E-02
9.8949	1.56524	1.93E-02
10.048	1.55968	1.41E-02
10.207	1.55574	1.37E-02
10.370	1.55465	1.44E-02
10.538	1.55192	1.15E-02
10.713	1.54956	1.19E-02
10.893	1.54469	1.62E-02
11.079	1.55262	1.96E-02
11.272	1.55142	8.86E-03
11.471	1.54510	8.18E-03
11.678	1.53725	9.07E-03
11.892	1.53690	1.16E-02
12.114	1.53241	8.56E-03
12.345	1.52404	6.54E-03
12.585	1.50745	1.04E-02
12.834	1.48175	2.89E-02
13.093	1.49226	8.91E-02
13.363	1.56176	9.07E-02
13.645	1.55760	2.82E-02
13.938	1.46750	2.17E-02
14.244	1.51292	3.22E-01
14.564	1.75952	9.05E-02
14.899	1.64037	1.73E-02
15.250	1.61111	1.18E-02
15.617	1.59346	1.13E-02
16.003	1.58261	1.42E-02
16.408	1.57934	1.67E-02
16.834	1.57118	1.89E-02
17.283	1.56074	2.27E-02
17.757	1.55947	3.77E-02
18.257	1.57361	5.70E-02
18.786	1.61088	4.86E-02
19.347	1.60843	1.87E-02
19.942	1.59856	1.65E-02
