Material: mat_lib / inorganic / Althoff
Optical constants. R. Althoff and J. H. Hertz. Measurement of the optical constants of Na and K in the range of wavelength from 2.5 to 10 Î¼, Infrared Phys. 7, 11-16 (1967)
wavelength (um)	n	k
2.5	0.346	7.55
3.2	0.648	9.65
4.5	1.38	14.3
5.5	1.66	17.1
7.2	2.89	21.6
10.15	4.77	28.2
