Material: mat_lib / inorganic / Ives
Optical constants. H. E. Ives and H. B. Briggs. The optical constants of potassium, J. Opt. Soc. Am. 26, 238-246 (1936)
wavelength (um)	n	k
0.2536	0.744	0.049
0.3126	0.410	0.080
0.3650	0.150	0.443
0.4047	0.105	0.710
0.4358	0.121	0.978
0.5461	0.091	1.42
0.5780	0.094	1.57
