Material: mat_lib / inorganic / Sutherland
Optical constants. J. C. Sutherland and E. T. Arakawa. Optical properties of potassium for photons of energy 3.96 to 9.69 eV, J. Opt. Soc. Am. 58, 1080-1083 (1968)
wavelength (um)	n
0.1280	0.964
0.1406	0.972
0.1438	0.978
0.1496	0.976
0.1579	0.965
0.1610	0.959
0.1744	0.929
0.1799	0.924
0.1848	0.911
0.1899	0.890
0.2000	0.876
0.2101	0.845
0.2198	0.823
0.2300	0.793
0.2535	0.717
0.3131	0.392
