Material: main / CsI / Querry
Optical constants. M. R. Querry. Optical constants of minerals and other materials from the millimeter to the ultraviolet, Contractor Report CRDEC-CR-88009 (1987)
wavelength (um)	n	k
0.2200	2.480	0.583
0.2400	2.227	0.000
0.2600	2.043	0.000
0.2800	1.955	0.000
0.3000	1.902	0.000
0.3200	1.867	0.000
0.3400	1.845	0.000
0.3600	1.822	0.000
0.3800	1.806	0.000
0.4000	1.794	0.000
0.4200	1.784	0.000
0.4400	1.774	0.000
0.4600	1.766	0.000
0.4800	1.757	0.000
0.5000	1.752	0.000
0.5200	1.748	0.000
0.5400	1.744	0.000
0.5600	1.740	0.000
0.5800	1.739	0.000
0.6000	1.737	0.000
0.6200	1.735	0.000
0.6400	1.734	0.000
0.6600	1.732	0.000
0.6800	1.731	0.000
0.7000	1.731	0.000
0.7200	1.729	0.000
0.7400	1.729	0.000
0.7600	1.729	0.000
0.7800	1.729	0.000
0.8000	1.730	0.000
0.8200	1.731	0.000
0.8400	1.732	0.000
0.8600	1.733	0.000
0.8800	1.733	0.000
0.9000	1.733	0.000
0.9200	1.734	0.000
0.9400	1.734	0.000
0.9600	1.735	0.000
0.9800	1.735	0.000
1.0000	1.736	0.000
1.0200	1.737	0.000
1.0400	1.738	0.000
1.0600	1.738	0.000
1.0800	1.739	0.000
1.1000	1.739	0.000
1.1200	1.740	0.000
1.1400	1.740	0.000
1.1600	1.740	0.000
1.1800	1.740	0.000
1.2000	1.740	0.000
1.2200	1.740	0.000
1.2400	1.740	0.000
1.2600	1.740	0.000
1.2800	1.740	0.000
1.3000	1.740	0.000
1.3200	1.739	0.000
1.3400	1.739	0.000
1.3600	1.739	0.000
1.3800	1.739	0.000
1.4000	1.739	0.000
1.4200	1.738	0.000
1.4400	1.738	0.000
1.4600	1.738	0.000
1.4800	1.738	0.000
1.5000	1.738	0.000
1.5200	1.738	0.000
1.5400	1.738	0.000
1.5600	1.738	0.000
1.5800	1.738	0.000
1.6000	1.738	0.000
1.6200	1.739	0.000
1.6400	1.739	0.000
1.6600	1.739	0.000
1.6800	1.739	0.000
1.7000	1.739	0.000
1.7200	1.740	0.000
1.7400	1.740	0.000
1.7600	1.740	0.000
1.7800	1.740	0.000
1.8000	1.740	0.000
1.8200	1.740	0.000
1.8400	1.740	0.000
1.8600	1.740	0.000
1.8800	1.740	0.000
1.9000	1.740	0.000
1.9200	1.740	0.000
1.9400	1.740	0.000
1.9600	1.740	0.000
1.9800	1.740	0.000
2.0000	1.740	0.000
2.0200	1.740	0.000
2.0400	1.740	0.000
2.0600	1.740	0.000
2.0800	1.740	0.000
2.1000	1.740	0.000
2.1200	1.740	0.000
2.1400	1.740	0.000
2.1600	1.740	0.000
2.1800	1.740	0.000
2.2000	1.740	0.000
2.2200	1.739	0.000
2.2400	1.739	0.000
2.2600	1.739	0.000
2.2800	1.739	0.000
2.3000	1.740	0.000
2.3200	1.740	0.000
2.3400	1.740	0.000
2.3600	1.740	0.000
2.3800	1.740	0.000
2.4000	1.740	0.000
2.4200	1.740	0.000
2.4400	1.740	0.000
2.4600	1.740	0.000
2.4800	1.740	0.000
2.5000	1.741	0.000
2.5126	1.741	0.000
2.5253	1.741	0.000
2.5381	1.741	0.000
2.5510	1.740	0.000
2.5641	1.740	0.000
2.5773	1.740	0.000
2.5907	1.740	0.000
2.6042	1.740	0.000
2.6178	1.740	0.000
2.6316	1.740	0.000
2.6455	1.740	0.000
2.6596	1.740	0.000
2.6738	1.740	0.000
2.6882	1.740	0.000
2.7027	1.739	0.000
2.7174	1.739	0.000
2.7322	1.739	0.000
2.7473	1.739	0.000
2.7624	1.739	0.000
2.7778	1.739	0.000
2.7933	1.739	0.000
2.8090	1.739	0.000
2.8249	1.739	0.000
2.8409	1.738	0.000
2.8571	1.738	0.000
2.8736	1.738	0.000
2.8902	1.738	0.000
2.9070	1.738	0.000
2.9240	1.738	0.000
2.9412	1.738	0.000
2.9586	1.737	0.000
2.9762	1.737	0.000
2.9940	1.737	0.000
3.0120	1.737	0.000
3.0303	1.737	0.000
3.0488	1.737	0.000
3.0675	1.737	0.000
3.0864	1.737	0.000
3.1056	1.737	0.000
3.1250	1.737	0.000
3.1447	1.737	0.000
3.1646	1.737	0.000
3.1847	1.738	0.000
3.2051	1.738	0.000
3.2258	1.738	0.000
3.2468	1.738	0.000
3.2680	1.738	0.000
3.2895	1.738	0.000
3.3113	1.738	0.000
3.3333	1.738	0.000
3.3557	1.738	0.000
3.3784	1.738	0.000
3.4014	1.738	0.000
3.4247	1.738	0.000
3.4483	1.738	0.000
3.4722	1.737	0.000
3.4965	1.737	0.000
3.5211	1.737	0.000
3.5461	1.737	0.000
3.5714	1.737	0.000
3.5971	1.737	0.000
3.6232	1.737	0.000
3.6496	1.737	0.000
3.6765	1.737	0.000
3.7037	1.737	0.000
3.7313	1.737	0.000
3.7594	1.737	0.000
3.7879	1.737	0.000
3.8168	1.737	0.000
3.8462	1.737	0.000
3.8760	1.737	0.000
3.9063	1.737	0.000
3.9370	1.737	0.000
3.9683	1.737	0.000
4.0000	1.737	0.000
4.0323	1.737	0.000
4.0650	1.737	0.000
4.0984	1.737	0.000
4.1322	1.737	0.000
4.1667	1.737	0.000
4.2017	1.737	0.000
4.2373	1.737	0.000
4.2735	1.737	0.000
4.3103	1.737	0.000
4.3478	1.737	0.000
4.3860	1.737	0.000
4.4248	1.737	0.000
4.4643	1.737	0.000
4.5045	1.737	0.000
4.5455	1.737	0.000
4.5872	1.737	0.000
4.6296	1.737	0.000
4.6729	1.737	0.000
4.7170	1.737	0.000
4.7619	1.737	0.000
4.8077	1.737	0.000
4.8544	1.737	0.000
4.9020	1.737	0.000
4.9505	1.737	0.000
5.0000	1.737	0.000
5.0505	1.737	0.000
5.1020	1.737	0.000
5.1546	1.737	0.000
5.2083	1.737	0.000
5.2632	1.738	0.000
5.3191	1.738	0.000
5.3763	1.738	0.000
5.4348	1.738	0.000
5.4945	1.738	0.000
5.5556	1.738	0.000
5.6180	1.738	0.000
5.6818	1.738	0.000
5.7471	1.738	0.000
5.8140	1.738	0.000
5.8824	1.738	0.000
5.9524	1.738	0.000
6.0241	1.738	0.000
6.0976	1.738	0.000
6.1728	1.738	0.000
6.2500	1.738	0.000
6.3291	1.738	0.000
6.4103	1.738	0.000
6.4935	1.739	0.000
6.5789	1.739	0.000
6.6667	1.739	0.000
6.7568	1.739	0.000
6.8493	1.739	0.000
6.9444	1.739	0.000
7.0423	1.739	0.000
7.1429	1.739	0.000
7.2464	1.739	0.000
7.3529	1.739	0.000
7.4627	1.739	0.000
7.5758	1.739	0.000
7.6923	1.739	0.000
7.8125	1.739	0.000
7.9365	1.739	0.000
8.0645	1.739	0.000
8.1967	1.739	0.000
8.3333	1.739	0.000
8.4746	1.739	0.000
8.6207	1.739	0.000
8.7719	1.739	0.000
8.9286	1.739	0.000
9.0909	1.739	0.000
9.2593	1.739	0.000
9.4340	1.740	0.000
9.6154	1.740	0.000
9.8039	1.740	0.000
10.0000	1.740	0.000
10.2041	1.740	0.000
10.4167	1.740	0.000
10.6383	1.740	0.000
10.8696	1.740	0.000
11.1111	1.740	0.000
11.3636	1.739	0.000
11.6279	1.739	0.000
11.9048	1.739	0.000
12.1951	1.739	0.000
12.5000	1.739	0.000
12.8205	1.739	0.000
13.1579	1.738	0.000
13.5135	1.738	0.000
13.8889	1.738	0.000
14.2857	1.738	0.000
14.7059	1.738	0.000
15.1515	1.738	0.000
15.6250	1.738	0.000
16.1290	1.739	0.000
16.6667	1.739	0.000
17.2414	1.739	0.000
17.8571	1.738	0.000
18.5185	1.738	0.000
19.2308	1.738	0.000
20.0000	1.737	0.000
20.8333	1.737	0.000
21.7391	1.736	0.000
22.7273	1.735	0.000
23.8095	1.731	0.000
25.0000	1.728	0.000
26.3158	1.725	0.000
27.7778	1.721	0.000
29.4118	1.716	0.000
31.2500	1.713	0.000
33.3333	1.708	0.000
35.7143	1.701	0.000
38.4615	1.693	0.000
41.6667	1.683	0.000
45.4545	1.670	0.000
50.0000	1.651	0.000
55.5556	1.624	0.000
62.5000	1.584	0.000
71.4286	1.516	0.001
83.3333	1.385	0.013
100.0000	1.037	0.092
125.0000	0.484	0.938
166.6667	6.332	7.237
