Material: main / H2O / Rowe-240K
Optical constants. P. M. Rowe, M. Fergoda, and S. Neshyba. Temperature-dependent optical properties of liquid water from 240 to 298 K, J. Geophys. Res. Atmos. 125, e2020JD032624 (2020) (Numerical data kindly provided by Penny Rowe)
Comments: Supercooled liquid water (H2O) at -33 Â°C
Specs: {"n_absolute": true, "wavelength_vacuum": true, "temperature": "-33 Â°C"}
wavelength (um)	n	k
6.6668373E-01	1.3277837E+00	2.4214387E-08
6.6835935E-01	1.3277733E+00	2.4214387E-08
6.7004342E-01	1.3277623E+00	2.4214387E-08
6.7173599E-01	1.3277512E+00	2.4214387E-08
6.7343718E-01	1.3277400E+00	2.4214387E-08
6.7514696E-01	1.3277287E+00	2.6077032E-08
6.7686545E-01	1.3277173E+00	2.6077032E-08
6.7859271E-01	1.3277059E+00	2.6077032E-08
6.8032880E-01	1.3276943E+00	2.6077032E-08
6.8207380E-01	1.3276827E+00	2.6077032E-08
6.8382778E-01	1.3276709E+00	2.6077032E-08
6.8559080E-01	1.3276591E+00	2.7939677E-08
6.8736294E-01	1.3276472E+00	2.7939677E-08
6.8914430E-01	1.3276351E+00	2.7939677E-08
6.9093488E-01	1.3276230E+00	2.9802322E-08
6.9273478E-01	1.3276108E+00	2.9802322E-08
6.9454409E-01	1.3275984E+00	3.1664968E-08
6.9636288E-01	1.3275860E+00	3.3527613E-08
6.9819121E-01	1.3275734E+00	3.3527613E-08
7.0002917E-01	1.3275608E+00	3.5390258E-08
7.0187683E-01	1.3275480E+00	3.7252903E-08
7.0373427E-01	1.3275352E+00	3.9115548E-08
7.0560162E-01	1.3275222E+00	4.0978193E-08
7.0747886E-01	1.3275091E+00	4.4703484E-08
7.0936611E-01	1.3274959E+00	4.6566129E-08
7.1126345E-01	1.3274826E+00	5.0291419E-08
7.1317098E-01	1.3274692E+00	5.4016709E-08
7.1508876E-01	1.3274557E+00	5.7742000E-08
7.1701688E-01	1.3274420E+00	6.3329935E-08
7.1895543E-01	1.3274282E+00	6.8917871E-08
7.2090449E-01	1.3274143E+00	7.4505806E-08
7.2286420E-01	1.3274003E+00	8.0093741E-08
7.2483454E-01	1.3273862E+00	8.7544322E-08
7.2681565E-01	1.3273719E+00	9.4994903E-08
7.2880762E-01	1.3273576E+00	1.0617077E-07
7.3081054E-01	1.3273431E+00	1.1920929E-07
7.3282450E-01	1.3273284E+00	1.3224781E-07
7.3484959E-01	1.3273137E+00	1.4528632E-07
7.3688590E-01	1.3272988E+00	1.5459955E-07
7.3893353E-01	1.3272838E+00	1.6018748E-07
7.4099262E-01	1.3272686E+00	1.6391277E-07
7.4306317E-01	1.3272533E+00	1.6577542E-07
7.4514532E-01	1.3272379E+00	1.6763806E-07
7.4723918E-01	1.3272223E+00	1.6763806E-07
7.4934483E-01	1.3272066E+00	1.6950071E-07
7.5146238E-01	1.3271908E+00	1.6950071E-07
7.5359194E-01	1.3271748E+00	1.7136335E-07
7.5573360E-01	1.3271586E+00	1.7136335E-07
7.5788747E-01	1.3271424E+00	1.7136335E-07
7.6005371E-01	1.3271259E+00	1.7136335E-07
7.6223230E-01	1.3271093E+00	1.7322600E-07
7.6442343E-01	1.3270926E+00	1.7322600E-07
7.6662719E-01	1.3270757E+00	1.7322600E-07
7.6884369E-01	1.3270586E+00	1.7136335E-07
7.7107304E-01	1.3270414E+00	1.7136335E-07
7.7331536E-01	1.3270240E+00	1.6950071E-07
7.7557076E-01	1.3270064E+00	1.6950071E-07
7.7783936E-01	1.3269887E+00	1.6763806E-07
7.8012132E-01	1.3269709E+00	1.6577542E-07
7.8241666E-01	1.3269528E+00	1.6391277E-07
7.8472554E-01	1.3269346E+00	1.6205013E-07
7.8704808E-01	1.3269162E+00	1.5832484E-07
7.8938442E-01	1.3268976E+00	1.5459955E-07
7.9173467E-01	1.3268788E+00	1.5273690E-07
7.9409896E-01	1.3268599E+00	1.4901161E-07
7.9647740E-01	1.3268408E+00	1.4714897E-07
7.9887014E-01	1.3268214E+00	1.4342368E-07
8.0127736E-01	1.3268019E+00	1.4156103E-07
8.0369907E-01	1.3267822E+00	1.3969839E-07
8.0613546E-01	1.3267623E+00	1.3969839E-07
8.0858667E-01	1.3267422E+00	1.3969839E-07
8.1105283E-01	1.3267220E+00	1.3969839E-07
8.1353408E-01	1.3267015E+00	1.4342368E-07
8.1603056E-01	1.3266808E+00	1.4528632E-07
8.1854241E-01	1.3266599E+00	1.4901161E-07
8.2106977E-01	1.3266387E+00	1.5459955E-07
8.2361285E-01	1.3266174E+00	1.6391277E-07
8.2617166E-01	1.3265958E+00	1.7881393E-07
8.2874643E-01	1.3265741E+00	1.9930303E-07
8.3133729E-01	1.3265521E+00	2.2351742E-07
8.3394441E-01	1.3265299E+00	2.4214387E-07
8.3656792E-01	1.3265075E+00	2.5331974E-07
8.3920800E-01	1.3264848E+00	2.6077032E-07
8.4186479E-01	1.3264619E+00	2.6822090E-07
8.4453846E-01	1.3264388E+00	2.7380884E-07
8.4722923E-01	1.3264154E+00	2.7939677E-07
8.4993714E-01	1.3263917E+00	2.8312206E-07
8.5266241E-01	1.3263679E+00	2.8684735E-07
8.5540521E-01	1.3263437E+00	2.9429793E-07
8.5816572E-01	1.3263193E+00	2.9802322E-07
8.6094410E-01	1.3262947E+00	3.0547380E-07
8.6374053E-01	1.3262697E+00	3.1292439E-07
8.6655518E-01	1.3262446E+00	3.2037497E-07
8.6938824E-01	1.3262191E+00	3.2782555E-07
8.7223996E-01	1.3261934E+00	3.3713877E-07
8.7511037E-01	1.3261673E+00	3.4831464E-07
8.7799974E-01	1.3261410E+00	3.5949051E-07
8.8090825E-01	1.3261144E+00	3.7252903E-07
8.8383610E-01	1.3260876E+00	3.8556755E-07
8.8678347E-01	1.3260604E+00	3.9860606E-07
8.8975056E-01	1.3260329E+00	4.1164458E-07
8.9273758E-01	1.3260051E+00	4.2468309E-07
8.9574472E-01	1.3259770E+00	4.3958426E-07
8.9877227E-01	1.3259485E+00	4.5262277E-07
9.0182027E-01	1.3259198E+00	4.6566129E-07
9.0488902E-01	1.3258907E+00	4.8242509E-07
9.0797872E-01	1.3258613E+00	5.0105155E-07
9.1108959E-01	1.3258315E+00	5.2340329E-07
9.1422185E-01	1.3258014E+00	5.5134296E-07
9.1737573E-01	1.3257709E+00	5.8859587E-07
9.2055144E-01	1.3257401E+00	6.3888729E-07
9.2374921E-01	1.3257089E+00	7.0780516E-07
9.2696937E-01	1.3256773E+00	7.9907477E-07
9.3021196E-01	1.3256453E+00	9.1269612E-07
9.3347733E-01	1.3256130E+00	1.0449439E-06
9.3676569E-01	1.3255803E+00	1.1809170E-06
9.4007731E-01	1.3255472E+00	1.3709068E-06
9.4341242E-01	1.3255138E+00	1.5795231E-06
9.4677129E-01	1.3254799E+00	1.8421561E-06
9.5015415E-01	1.3254456E+00	2.1960586E-06
9.5356128E-01	1.3254111E+00	2.6468188E-06
9.5699302E-01	1.3253763E+00	3.0975789E-06
9.6044946E-01	1.3253412E+00	3.4049153E-06
9.6393096E-01	1.3253057E+00	3.5688281E-06
9.6743779E-01	1.3252697E+00	3.6656857E-06
9.7097022E-01	1.3252332E+00	3.7215650E-06
9.7452855E-01	1.3251963E+00	3.7681311E-06
9.7811306E-01	1.3251589E+00	3.7793070E-06
9.8172403E-01	1.3251210E+00	3.7457794E-06
9.8536176E-01	1.3250826E+00	3.6880374E-06
9.8902665E-01	1.3250437E+00	3.5967678E-06
9.9271880E-01	1.3250042E+00	3.4794211E-06
9.9643863E-01	1.3249643E+00	3.3639371E-06
1.0001864E+00	1.3249237E+00	3.2316893E-06
1.0039625E+00	1.3248827E+00	3.0901283E-06
1.0077673E+00	1.3248411E+00	2.9318035E-06
1.0116010E+00	1.3247989E+00	2.7623028E-06
1.0154639E+00	1.3247561E+00	2.6095659E-06
1.0193565E+00	1.3247128E+00	2.4512410E-06
1.0232790E+00	1.3246688E+00	2.2742897E-06
1.0272319E+00	1.3246243E+00	2.1159649E-06
1.0312154E+00	1.3245791E+00	1.9483268E-06
1.0352299E+00	1.3245333E+00	1.8067658E-06
1.0392758E+00	1.3244868E+00	1.6763806E-06
1.0433534E+00	1.3244397E+00	1.5627593E-06
1.0474632E+00	1.3243919E+00	1.4491379E-06
1.0516055E+00	1.3243435E+00	1.3671815E-06
1.0557806E+00	1.3242944E+00	1.2945384E-06
1.0599891E+00	1.3242445E+00	1.2516975E-06
1.0642312E+00	1.3241940E+00	1.2181699E-06
1.0685074E+00	1.3241428E+00	1.1995435E-06
1.0728182E+00	1.3240908E+00	1.1995435E-06
1.0771638E+00	1.3240380E+00	1.2256205E-06
1.0815448E+00	1.3239845E+00	1.2572855E-06
1.0859616E+00	1.3239303E+00	1.3317913E-06
1.0904146E+00	1.3238752E+00	1.4100224E-06
1.0949043E+00	1.3238193E+00	1.5087426E-06
1.0994311E+00	1.3237626E+00	1.6447157E-06
1.1039955E+00	1.3237051E+00	1.7657876E-06
1.1085979E+00	1.3236467E+00	1.9073486E-06
1.1132389E+00	1.3235874E+00	2.0582229E-06
1.1179189E+00	1.3235271E+00	2.1494925E-06
1.1226384E+00	1.3234657E+00	2.3785979E-06
1.1273979E+00	1.3234033E+00	2.7026981E-06
1.1321980E+00	1.3233398E+00	3.3397228E-06
1.1370391E+00	1.3232753E+00	4.4479966E-06
1.1419218E+00	1.3232103E+00	6.0461462E-06
1.1468466E+00	1.3231448E+00	7.8584999E-06
1.1518140E+00	1.3230789E+00	9.4529241E-06
1.1568247E+00	1.3230125E+00	1.0425225E-05
1.1618792E+00	1.3229448E+00	1.0941178E-05
1.1669780E+00	1.3228758E+00	1.1153519E-05
1.1721218E+00	1.3228054E+00	1.1371449E-05
1.1773111E+00	1.3227340E+00	1.1518598E-05
1.1825466E+00	1.3226611E+00	1.1717901E-05
1.1878288E+00	1.3225871E+00	1.1904165E-05
1.1931585E+00	1.3225118E+00	1.2092292E-05
1.1985362E+00	1.3224354E+00	1.2205914E-05
1.2039626E+00	1.3223574E+00	1.2148172E-05
1.2094383E+00	1.3222782E+00	1.2086704E-05
1.2149641E+00	1.3221975E+00	1.1986122E-05
1.2205406E+00	1.3221153E+00	1.1777505E-05
1.2261686E+00	1.3220315E+00	1.1689961E-05
1.2318486E+00	1.3219463E+00	1.1587515E-05
1.2375816E+00	1.3218593E+00	1.1401251E-05
1.2433681E+00	1.3217708E+00	1.1319295E-05
1.2492091E+00	1.3216805E+00	1.1125579E-05
1.2551051E+00	1.3215884E+00	1.0987744E-05
1.2610571E+00	1.3214945E+00	1.0961667E-05
1.2670658E+00	1.3213986E+00	1.0898337E-05
1.2731321E+00	1.3213007E+00	1.1041760E-05
1.2792567E+00	1.3212009E+00	1.1326745E-05
1.2854405E+00	1.3210990E+00	1.1904165E-05
1.2916844E+00	1.3209949E+00	1.2451783E-05
1.2979892E+00	1.3208886E+00	1.3280660E-05
1.3043559E+00	1.3207799E+00	1.4450401E-05
1.3107854E+00	1.3206688E+00	1.6015023E-05
1.3172785E+00	1.3205553E+00	1.8009916E-05
1.3238363E+00	1.3204394E+00	2.0528212E-05
1.3304598E+00	1.3203210E+00	2.3605302E-05
1.3371498E+00	1.3202000E+00	2.7155504E-05
1.3439075E+00	1.3200763E+00	3.0810013E-05
1.3507338E+00	1.3199500E+00	3.4589320E-05
1.3576298E+00	1.3198189E+00	3.7895516E-05
1.3645966E+00	1.3196821E+00	4.1885301E-05
1.3716352E+00	1.3195382E+00	4.8045069E-05
1.3787469E+00	1.3193859E+00	5.9710816E-05
1.3859327E+00	1.3192255E+00	8.3265826E-05
1.3931937E+00	1.3190626E+00	1.2553297E-04
1.4005313E+00	1.3189197E+00	1.8899888E-04
1.4079465E+00	1.3187983E+00	2.4646148E-04
1.4154407E+00	1.3186918E+00	2.9283203E-04
1.4230151E+00	1.3185824E+00	3.2376125E-04
1.4306710E+00	1.3184758E+00	3.4969300E-04
1.4384097E+00	1.3183685E+00	3.6830083E-04
1.4462326E+00	1.3182551E+00	3.7503615E-04
1.4541411E+00	1.3181395E+00	3.7913956E-04
1.4621365E+00	1.3180237E+00	3.7680566E-04
1.4702203E+00	1.3179008E+00	3.5883300E-04
1.4783940E+00	1.3177684E+00	3.3568963E-04
1.4866592E+00	1.3176192E+00	3.0904822E-04
1.4950172E+00	1.3174602E+00	2.7797371E-04
1.5034697E+00	1.3172904E+00	2.5203079E-04
1.5120184E+00	1.3171120E+00	2.2673607E-04
1.5206648E+00	1.3169236E+00	2.0371750E-04
1.5294108E+00	1.3167276E+00	1.8635020E-04
1.5382578E+00	1.3165295E+00	1.6937032E-04
1.5472079E+00	1.3163200E+00	1.5079230E-04
1.5562627E+00	1.3161074E+00	1.3844296E-04
1.5654241E+00	1.3158864E+00	1.2639910E-04
1.5746940E+00	1.3156593E+00	1.1695176E-04
1.5840743E+00	1.3154279E+00	1.0955893E-04
1.5935671E+00	1.3151898E+00	1.0218844E-04
1.6031743E+00	1.3149454E+00	9.6661970E-05
1.6128981E+00	1.3146945E+00	9.2297792E-05
1.6227405E+00	1.3144373E+00	8.8138506E-05
1.6327038E+00	1.3141729E+00	8.4882602E-05
1.6427902E+00	1.3139005E+00	8.2254410E-05
1.6530020E+00	1.3136210E+00	8.0287457E-05
1.6633416E+00	1.3133326E+00	7.8858808E-05
1.6738113E+00	1.3130358E+00	7.8113750E-05
1.6844136E+00	1.3127296E+00	7.8242272E-05
1.6951511E+00	1.3124139E+00	7.8925863E-05
1.7060265E+00	1.3120880E+00	8.0341473E-05
1.7170422E+00	1.3117506E+00	8.3457679E-05
1.7282011E+00	1.3114025E+00	8.7823719E-05
1.7395060E+00	1.3110421E+00	9.4041228E-05
1.7509598E+00	1.3106705E+00	1.0321103E-04
1.7625654E+00	1.3102870E+00	1.1302903E-04
1.7743259E+00	1.3098937E+00	1.2387894E-04
1.7862444E+00	1.3094854E+00	1.3016164E-04
1.7983241E+00	1.3090561E+00	1.3100542E-04
1.8105683E+00	1.3086021E+00	1.3235398E-04
1.8229803E+00	1.3081157E+00	1.3371930E-04
1.8355637E+00	1.3075913E+00	1.3975613E-04
1.8483221E+00	1.3070137E+00	1.5442260E-04
1.8612590E+00	1.3063606E+00	2.0292960E-04
1.8743783E+00	1.3055972E+00	3.5179965E-04
1.8876839E+00	1.3047954E+00	7.6911785E-04
1.9011797E+00	1.3043343E+00	1.4899895E-03
1.9148699E+00	1.3042931E+00	1.9440763E-03
1.9287587E+00	1.3042585E+00	2.0959005E-03
1.9428504E+00	1.3041461E+00	2.0461977E-03
1.9571495E+00	1.3038966E+00	1.8600859E-03
1.9716607E+00	1.3034816E+00	1.6319919E-03
1.9863887E+00	1.3029496E+00	1.4082100E-03
2.0013384E+00	1.3023232E+00	1.2140479E-03
2.0165148E+00	1.3016203E+00	1.0468997E-03
2.0319231E+00	1.3008655E+00	9.0155005E-04
2.0475687E+00	1.3000530E+00	7.8690611E-04
2.0634572E+00	1.2992018E+00	6.8238191E-04
2.0795941E+00	1.2982876E+00	5.9698150E-04
2.0959854E+00	1.2973281E+00	5.2766874E-04
2.1126372E+00	1.2963145E+00	4.7135167E-04
2.1295556E+00	1.2952466E+00	4.2795762E-04
2.1467472E+00	1.2941208E+00	3.9479136E-04
2.1642187E+00	1.2929320E+00	3.7335046E-04
2.1819768E+00	1.2916760E+00	3.5953522E-04
2.2000288E+00	1.2903459E+00	3.5287254E-04
2.2183821E+00	1.2889333E+00	3.5450608E-04
2.2370440E+00	1.2874296E+00	3.6574900E-04
2.2560227E+00	1.2858247E+00	3.8510747E-04
2.2753261E+00	1.2841086E+00	4.1723996E-04
2.2949626E+00	1.2822697E+00	4.6388805E-04
2.3149411E+00	1.2802941E+00	5.2475557E-04
2.3352705E+00	1.2781670E+00	6.0245767E-04
2.3559601E+00	1.2758932E+00	7.0583634E-04
2.3770195E+00	1.2733987E+00	8.1223249E-04
2.3984590E+00	1.2706940E+00	9.4654039E-04
2.4202886E+00	1.2677373E+00	1.1102874E-03
2.4425192E+00	1.2644927E+00	1.3059098E-03
2.4651620E+00	1.2609378E+00	1.5878491E-03
2.4882286E+00	1.2570861E+00	1.8789954E-03
2.5117309E+00	1.2528067E+00	2.0155124E-03
2.5356813E+00	1.2478520E+00	2.1101348E-03
2.5600930E+00	1.2420272E+00	2.1516401E-03
2.5849793E+00	1.2350719E+00	2.2705682E-03
2.6103542E+00	1.2267313E+00	2.6048254E-03
2.6362321E+00	1.2167207E+00	3.2326562E-03
2.6626283E+00	1.2040898E+00	3.8434727E-03
2.6895584E+00	1.1864463E+00	5.5822591E-03
2.7170388E+00	1.1619239E+00	1.3282232E-02
2.7450866E+00	1.1356761E+00	3.1461270E-02
2.7737195E+00	1.1101824E+00	5.8679971E-02
2.8029560E+00	1.0886956E+00	9.8872953E-02
2.8328154E+00	1.0763410E+00	1.5333705E-01
2.8633180E+00	1.0854887E+00	2.1599248E-01
2.8944844E+00	1.1159450E+00	2.7581137E-01
2.9263368E+00	1.1652556E+00	3.2482749E-01
2.9588981E+00	1.2280877E+00	3.5600010E-01
2.9921921E+00	1.2935976E+00	3.6535491E-01
3.0262439E+00	1.3523363E+00	3.6189760E-01
3.0610797E+00	1.4109729E+00	3.4858594E-01
3.0967268E+00	1.4672489E+00	3.2241241E-01
3.1332139E+00	1.5165120E+00	2.7989283E-01
3.1705712E+00	1.5504794E+00	2.2389725E-01
3.2088300E+00	1.5629772E+00	1.6064120E-01
3.2480234E+00	1.5504833E+00	1.0590821E-01
3.2881860E+00	1.5280563E+00	6.7455581E-02
3.3293543E+00	1.5037340E+00	4.2414463E-02
3.3715666E+00	1.4813775E+00	2.7553099E-02
3.4148630E+00	1.4627951E+00	1.7862828E-02
3.4592858E+00	1.4467713E+00	1.1484145E-02
3.5048797E+00	1.4331508E+00	7.5028890E-03
3.5516916E+00	1.4214675E+00	4.9976779E-03
3.5997707E+00	1.4114455E+00	3.6494453E-03
3.6491694E+00	1.4029188E+00	2.8885742E-03
3.6999428E+00	1.3954471E+00	2.4499817E-03
3.7521489E+00	1.3887023E+00	2.2653486E-03
3.8058495E+00	1.3825578E+00	2.4176520E-03
3.8611094E+00	1.3769234E+00	2.8780309E-03
3.9179977E+00	1.3718903E+00	3.6795551E-03
3.9765874E+00	1.3673889E+00	4.6415213E-03
4.0369562E+00	1.3633616E+00	5.7332041E-03
4.0991860E+00	1.3598000E+00	6.7989478E-03
4.1633644E+00	1.3563676E+00	7.8518569E-03
4.2295844E+00	1.3531731E+00	9.0365962E-03
4.2979449E+00	1.3498567E+00	1.0493099E-02
4.3685514E+00	1.3471969E+00	1.2657878E-02
4.4415166E+00	1.3452685E+00	1.4982466E-02
4.5169605E+00	1.3444938E+00	1.7418719E-02
4.5950117E+00	1.3451952E+00	1.8977133E-02
4.6758080E+00	1.3465300E+00	1.8239316E-02
4.7594962E+00	1.3462197E+00	1.5485949E-02
4.8462348E+00	1.3438761E+00	1.2522256E-02
4.9361935E+00	1.3400163E+00	1.0105939E-02
5.0295552E+00	1.3352183E+00	8.6076736E-03
5.1265165E+00	1.3298045E+00	7.8847850E-03
5.2272899E+00	1.3237786E+00	7.8806292E-03
5.3321045E+00	1.3170280E+00	8.5511840E-03
5.4412086E+00	1.3090207E+00	9.8056907E-03
5.5548711E+00	1.2978413E+00	1.2285041E-02
5.6733832E+00	1.2830314E+00	2.1156619E-02
5.7970625E+00	1.2654963E+00	4.1714907E-02
5.9262543E+00	1.2680678E+00	8.7980315E-02
6.0613356E+00	1.3186434E+00	1.1487422E-01
6.2027186E+00	1.3598564E+00	8.5213004E-02
6.3508547E+00	1.3580285E+00	5.3477484E-02
6.5062397E+00	1.3455634E+00	4.0708296E-02
6.6694189E+00	1.3364291E+00	3.6928993E-02
6.8409944E+00	1.3296106E+00	3.5530392E-02
7.0216302E+00	1.3239742E+00	3.5138607E-02
7.2120641E+00	1.3186735E+00	3.5167888E-02
7.4131155E+00	1.3135028E+00	3.5487518E-02
7.6256978E+00	1.3083051E+00	3.6015563E-02
7.8508323E+00	1.3028656E+00	3.6456399E-02
8.0896645E+00	1.2964132E+00	3.6286339E-02
8.3434839E+00	1.2886839E+00	3.6903072E-02
8.6137467E+00	1.2792721E+00	3.7663303E-02
8.9021052E+00	1.2687333E+00	3.8564770E-02
9.2104380E+00	1.2546375E+00	3.9737261E-02
9.5408959E+00	1.2362711E+00	4.2289079E-02
9.8959490E+00	1.2108496E+00	4.7046067E-02
1.0278449E+01	1.1745109E+00	5.9543008E-02
1.0691708E+01	1.1261197E+00	9.6230482E-02
1.1139589E+01	1.0952124E+00	1.6758660E-01
1.1626635E+01	1.0969957E+00	2.5083808E-01
1.2158218E+01	1.1297280E+00	3.2879614E-01
1.2740739E+01	1.1849181E+00	3.9289763E-01
1.3381888E+01	1.2569554E+00	4.3657042E-01
1.4090985E+01	1.3351228E+00	4.5670766E-01
1.4879435E+01	1.4141406E+00	4.5479327E-01
1.5761350E+01	1.4824978E+00	4.2679469E-01
1.6754396E+01	1.5291378E+00	3.8985982E-01
1.7880989E+01	1.5647495E+00	3.5217148E-01
1.9170012E+01	1.5864028E+00	3.1121623E-01
2.0659323E+01	1.5974978E+00	2.7504740E-01
2.2399534E+01	1.6017259E+00	2.4211399E-01
2.4459881E+01	1.5981171E+00	2.1052327E-01
2.6937651E+01	1.5793805E+00	1.8398209E-01
2.9973997E+01	1.5505118E+00	1.7222539E-01
3.3781798E+01	1.5040261E+00	1.7575397E-01
3.8697850E+01	1.4404682E+00	2.4993053E-01
4.5288382E+01	1.4582118E+00	4.0277451E-01
5.4584536E+01	1.6317982E+00	5.2389297E-01
6.8682753E+01	1.8557430E+00	4.7930784E-01
9.2599580E+01	1.9798895E+00	3.2267994E-01
1.4207222E+02	1.9484508E+00	1.8235787E-01
3.0504896E+02	1.8816738E+00	2.6850921E-01
