Material: main / H2O / Rowe-253K
Optical constants. P. M. Rowe, M. Fergoda, and S. Neshyba. Temperature-dependent optical properties of liquid water from 240 to 298 K, J. Geophys. Res. Atmos. 125, e2020JD032624 (2020) (Numerical data kindly provided by Penny Rowe)
Comments: Supercooled liquid water (H2O) at -20 Â°C
Specs: {"n_absolute": true, "wavelength_vacuum": true, "temperature": "-20 Â°C"}
wavelength (um)	n	k
6.6668373E-01	1.3272993E+00	2.4214387E-08
6.6835935E-01	1.3272891E+00	2.4214387E-08
6.7004342E-01	1.3272782E+00	2.4214387E-08
6.7173599E-01	1.3272673E+00	2.4214387E-08
6.7343718E-01	1.3272563E+00	2.4214387E-08
6.7514696E-01	1.3272452E+00	2.6077032E-08
6.7686545E-01	1.3272341E+00	2.6077032E-08
6.7859271E-01	1.3272228E+00	2.6077032E-08
6.8032880E-01	1.3272114E+00	2.6077032E-08
6.8207380E-01	1.3272000E+00	2.6077032E-08
6.8382778E-01	1.3271884E+00	2.6077032E-08
6.8559080E-01	1.3271768E+00	2.7939677E-08
6.8736294E-01	1.3271651E+00	2.7939677E-08
6.8914430E-01	1.3271532E+00	2.7939677E-08
6.9093488E-01	1.3271413E+00	2.9802322E-08
6.9273478E-01	1.3271293E+00	2.9802322E-08
6.9454409E-01	1.3271171E+00	3.1664968E-08
6.9636288E-01	1.3271049E+00	3.3527613E-08
6.9819121E-01	1.3270926E+00	3.3527613E-08
7.0002917E-01	1.3270801E+00	3.5390258E-08
7.0187683E-01	1.3270676E+00	3.7252903E-08
7.0373427E-01	1.3270549E+00	3.9115548E-08
7.0560162E-01	1.3270422E+00	4.0978193E-08
7.0747886E-01	1.3270293E+00	4.4703484E-08
7.0936611E-01	1.3270164E+00	4.6566129E-08
7.1126345E-01	1.3270033E+00	5.0291419E-08
7.1317098E-01	1.3269901E+00	5.4016709E-08
7.1508876E-01	1.3269768E+00	5.7742000E-08
7.1701688E-01	1.3269633E+00	6.3329935E-08
7.1895543E-01	1.3269498E+00	6.8917871E-08
7.2090449E-01	1.3269362E+00	7.4505806E-08
7.2286420E-01	1.3269224E+00	8.0093741E-08
7.2483454E-01	1.3269085E+00	8.7544322E-08
7.2681565E-01	1.3268945E+00	9.4994903E-08
7.2880762E-01	1.3268803E+00	1.0617077E-07
7.3081054E-01	1.3268661E+00	1.1920929E-07
7.3282450E-01	1.3268517E+00	1.3224781E-07
7.3484959E-01	1.3268372E+00	1.4528632E-07
7.3688590E-01	1.3268225E+00	1.5459955E-07
7.3893353E-01	1.3268078E+00	1.6018748E-07
7.4099262E-01	1.3267929E+00	1.6391277E-07
7.4306317E-01	1.3267779E+00	1.6577542E-07
7.4514532E-01	1.3267627E+00	1.6763806E-07
7.4723918E-01	1.3267474E+00	1.6763806E-07
7.4934483E-01	1.3267319E+00	1.6950071E-07
7.5146238E-01	1.3267164E+00	1.6950071E-07
7.5359194E-01	1.3267006E+00	1.7136335E-07
7.5573360E-01	1.3266848E+00	1.7136335E-07
7.5788747E-01	1.3266687E+00	1.7136335E-07
7.6005371E-01	1.3266526E+00	1.7136335E-07
7.6223230E-01	1.3266363E+00	1.7322600E-07
7.6442343E-01	1.3266198E+00	1.7322600E-07
7.6662719E-01	1.3266032E+00	1.7322600E-07
7.6884369E-01	1.3265864E+00	1.7136335E-07
7.7107304E-01	1.3265695E+00	1.7136335E-07
7.7331536E-01	1.3265524E+00	1.6950071E-07
7.7557076E-01	1.3265351E+00	1.6950071E-07
7.7783936E-01	1.3265177E+00	1.6763806E-07
7.8012132E-01	1.3265001E+00	1.6577542E-07
7.8241666E-01	1.3264824E+00	1.6391277E-07
7.8472554E-01	1.3264645E+00	1.6205013E-07
7.8704808E-01	1.3264464E+00	1.5832484E-07
7.8938442E-01	1.3264281E+00	1.5459955E-07
7.9173467E-01	1.3264097E+00	1.5273690E-07
7.9409896E-01	1.3263910E+00	1.4901161E-07
7.9647740E-01	1.3263722E+00	1.4714897E-07
7.9887014E-01	1.3263532E+00	1.4342368E-07
8.0127736E-01	1.3263341E+00	1.4156103E-07
8.0369907E-01	1.3263147E+00	1.3969839E-07
8.0613546E-01	1.3262951E+00	1.3969839E-07
8.0858667E-01	1.3262754E+00	1.3969839E-07
8.1105283E-01	1.3262554E+00	1.3969839E-07
8.1353408E-01	1.3262353E+00	1.4342368E-07
8.1603056E-01	1.3262149E+00	1.4528632E-07
8.1854241E-01	1.3261944E+00	1.4901161E-07
8.2106977E-01	1.3261736E+00	1.5459955E-07
8.2361285E-01	1.3261527E+00	1.6391277E-07
8.2617166E-01	1.3261315E+00	1.7881393E-07
8.2874643E-01	1.3261101E+00	1.9930303E-07
8.3133729E-01	1.3260885E+00	2.2351742E-07
8.3394441E-01	1.3260666E+00	2.4214387E-07
8.3656792E-01	1.3260446E+00	2.5331974E-07
8.3920800E-01	1.3260223E+00	2.6077032E-07
8.4186479E-01	1.3259998E+00	2.6822090E-07
8.4453846E-01	1.3259770E+00	2.7380884E-07
8.4722923E-01	1.3259541E+00	2.7939677E-07
8.4993714E-01	1.3259308E+00	2.8312206E-07
8.5266241E-01	1.3259074E+00	2.8684735E-07
8.5540521E-01	1.3258836E+00	2.9429793E-07
8.5816572E-01	1.3258597E+00	2.9802322E-07
8.6094410E-01	1.3258354E+00	3.0547380E-07
8.6374053E-01	1.3258109E+00	3.1292439E-07
8.6655518E-01	1.3257862E+00	3.2037497E-07
8.6938824E-01	1.3257611E+00	3.2782555E-07
8.7223996E-01	1.3257358E+00	3.3713877E-07
8.7511037E-01	1.3257103E+00	3.4831464E-07
8.7799974E-01	1.3256844E+00	3.5949051E-07
8.8090825E-01	1.3256583E+00	3.7252903E-07
8.8383610E-01	1.3256318E+00	3.8556755E-07
8.8678347E-01	1.3256051E+00	3.9860606E-07
8.8975056E-01	1.3255781E+00	4.1164458E-07
8.9273758E-01	1.3255508E+00	4.2468309E-07
8.9574472E-01	1.3255231E+00	4.3958426E-07
8.9877227E-01	1.3254952E+00	4.5262277E-07
9.0182027E-01	1.3254669E+00	4.6566129E-07
9.0488902E-01	1.3254383E+00	4.8242509E-07
9.0797872E-01	1.3254094E+00	5.0105155E-07
9.1108959E-01	1.3253801E+00	5.2340329E-07
9.1422185E-01	1.3253505E+00	5.5134296E-07
9.1737573E-01	1.3253206E+00	5.8859587E-07
9.2055144E-01	1.3252903E+00	6.3888729E-07
9.2374921E-01	1.3252596E+00	7.0780516E-07
9.2696937E-01	1.3252286E+00	7.9907477E-07
9.3021196E-01	1.3251972E+00	9.1269612E-07
9.3347733E-01	1.3251654E+00	1.0449439E-06
9.3676569E-01	1.3251333E+00	1.1809170E-06
9.4007731E-01	1.3251008E+00	1.3709068E-06
9.4341242E-01	1.3250679E+00	1.5795231E-06
9.4677129E-01	1.3250346E+00	1.8421561E-06
9.5015415E-01	1.3250009E+00	2.1960586E-06
9.5356128E-01	1.3249669E+00	2.6468188E-06
9.5699302E-01	1.3249328E+00	3.0975789E-06
9.6044946E-01	1.3248983E+00	3.4049153E-06
9.6393096E-01	1.3248634E+00	3.5688281E-06
9.6743779E-01	1.3248280E+00	3.6656857E-06
9.7097022E-01	1.3247921E+00	3.7215650E-06
9.7452855E-01	1.3247558E+00	3.7681311E-06
9.7811306E-01	1.3247191E+00	3.7793070E-06
9.8172403E-01	1.3246818E+00	3.7457794E-06
9.8536176E-01	1.3246441E+00	3.6880374E-06
9.8902665E-01	1.3246059E+00	3.5967678E-06
9.9271880E-01	1.3245671E+00	3.4794211E-06
9.9643863E-01	1.3245279E+00	3.3639371E-06
1.0001864E+00	1.3244881E+00	3.2316893E-06
1.0039625E+00	1.3244477E+00	3.0901283E-06
1.0077673E+00	1.3244068E+00	2.9318035E-06
1.0116010E+00	1.3243654E+00	2.7623028E-06
1.0154639E+00	1.3243233E+00	2.6095659E-06
1.0193565E+00	1.3242808E+00	2.4512410E-06
1.0232790E+00	1.3242376E+00	2.2742897E-06
1.0272319E+00	1.3241938E+00	2.1159649E-06
1.0312154E+00	1.3241494E+00	1.9483268E-06
1.0352299E+00	1.3241043E+00	1.8067658E-06
1.0392758E+00	1.3240587E+00	1.6763806E-06
1.0433534E+00	1.3240124E+00	1.5627593E-06
1.0474632E+00	1.3239654E+00	1.4491379E-06
1.0516055E+00	1.3239178E+00	1.3671815E-06
1.0557806E+00	1.3238696E+00	1.2945384E-06
1.0599891E+00	1.3238206E+00	1.2516975E-06
1.0642312E+00	1.3237709E+00	1.2181699E-06
1.0685074E+00	1.3237206E+00	1.1995435E-06
1.0728182E+00	1.3236695E+00	1.1995435E-06
1.0771638E+00	1.3236177E+00	1.2256205E-06
1.0815448E+00	1.3235651E+00	1.2572855E-06
1.0859616E+00	1.3235118E+00	1.3317913E-06
1.0904146E+00	1.3234577E+00	1.4100224E-06
1.0949043E+00	1.3234028E+00	1.5087426E-06
1.0994311E+00	1.3233470E+00	1.6447157E-06
1.1039955E+00	1.3232905E+00	1.7657876E-06
1.1085979E+00	1.3232331E+00	1.9073486E-06
1.1132389E+00	1.3231748E+00	2.0582229E-06
1.1179189E+00	1.3231156E+00	2.1494925E-06
1.1226384E+00	1.3230553E+00	2.3785979E-06
1.1273979E+00	1.3229940E+00	2.7026981E-06
1.1321980E+00	1.3229315E+00	3.3397228E-06
1.1370391E+00	1.3228682E+00	4.4479966E-06
1.1419218E+00	1.3228042E+00	6.0461462E-06
1.1468466E+00	1.3227399E+00	7.8584999E-06
1.1518140E+00	1.3226752E+00	9.4529241E-06
1.1568247E+00	1.3226100E+00	1.0425225E-05
1.1618792E+00	1.3225435E+00	1.0941178E-05
1.1669780E+00	1.3224757E+00	1.1153519E-05
1.1721218E+00	1.3224066E+00	1.1371449E-05
1.1773111E+00	1.3223364E+00	1.1518598E-05
1.1825466E+00	1.3222648E+00	1.1717901E-05
1.1878288E+00	1.3221921E+00	1.1904165E-05
1.1931585E+00	1.3221181E+00	1.2092292E-05
1.1985362E+00	1.3220431E+00	1.2205914E-05
1.2039626E+00	1.3219665E+00	1.2148172E-05
1.2094383E+00	1.3218886E+00	1.2086704E-05
1.2149641E+00	1.3218094E+00	1.1986122E-05
1.2205406E+00	1.3217286E+00	1.1777505E-05
1.2261686E+00	1.3216463E+00	1.1689961E-05
1.2318486E+00	1.3215625E+00	1.1587515E-05
1.2375816E+00	1.3214771E+00	1.1401251E-05
1.2433681E+00	1.3213902E+00	1.1319295E-05
1.2492091E+00	1.3213015E+00	1.1125579E-05
1.2551051E+00	1.3212109E+00	1.0987744E-05
1.2610571E+00	1.3211187E+00	1.0961667E-05
1.2670658E+00	1.3210245E+00	1.0898337E-05
1.2731321E+00	1.3209283E+00	1.1041760E-05
1.2792567E+00	1.3208302E+00	1.1326745E-05
1.2854405E+00	1.3207301E+00	1.1904165E-05
1.2916844E+00	1.3206278E+00	1.2451783E-05
1.2979892E+00	1.3205233E+00	1.3280660E-05
1.3043559E+00	1.3204165E+00	1.4450401E-05
1.3107854E+00	1.3203073E+00	1.6015023E-05
1.3172785E+00	1.3201957E+00	1.8009916E-05
1.3238363E+00	1.3200818E+00	2.0528212E-05
1.3304598E+00	1.3199654E+00	2.3605302E-05
1.3371498E+00	1.3198465E+00	2.7155504E-05
1.3439075E+00	1.3197248E+00	3.0810013E-05
1.3507338E+00	1.3196006E+00	3.4589320E-05
1.3576298E+00	1.3194717E+00	3.7895516E-05
1.3645966E+00	1.3193372E+00	4.1885301E-05
1.3716352E+00	1.3191955E+00	4.8045069E-05
1.3787469E+00	1.3190456E+00	5.9710816E-05
1.3859327E+00	1.3188875E+00	8.3265826E-05
1.3931937E+00	1.3187271E+00	1.2553297E-04
1.4005313E+00	1.3185866E+00	1.8899888E-04
1.4079465E+00	1.3184678E+00	2.4646148E-04
1.4154407E+00	1.3183639E+00	2.9283203E-04
1.4230151E+00	1.3182571E+00	3.2376125E-04
1.4306710E+00	1.3181532E+00	3.4969300E-04
1.4384097E+00	1.3180486E+00	3.6830083E-04
1.4462326E+00	1.3179380E+00	3.7503615E-04
1.4541411E+00	1.3178253E+00	3.7913956E-04
1.4621365E+00	1.3177125E+00	3.7680566E-04
1.4702203E+00	1.3175926E+00	3.5883300E-04
1.4783940E+00	1.3174633E+00	3.3568963E-04
1.4866592E+00	1.3173173E+00	3.0904822E-04
1.4950172E+00	1.3171615E+00	2.7797371E-04
1.5034697E+00	1.3169951E+00	2.5203079E-04
1.5120184E+00	1.3168201E+00	2.2673607E-04
1.5206648E+00	1.3166351E+00	2.0371750E-04
1.5294108E+00	1.3164427E+00	1.8635020E-04
1.5382578E+00	1.3162483E+00	1.6937032E-04
1.5472079E+00	1.3160425E+00	1.5079230E-04
1.5562627E+00	1.3158337E+00	1.3844296E-04
1.5654241E+00	1.3156167E+00	1.2639910E-04
1.5746940E+00	1.3153937E+00	1.1695176E-04
1.5840743E+00	1.3151663E+00	1.0955893E-04
1.5935671E+00	1.3149326E+00	1.0218844E-04
1.6031743E+00	1.3146925E+00	9.6661970E-05
1.6128981E+00	1.3144461E+00	9.2297792E-05
1.6227405E+00	1.3141935E+00	8.8138506E-05
1.6327038E+00	1.3139339E+00	8.4882602E-05
1.6427902E+00	1.3136663E+00	8.2254410E-05
1.6530020E+00	1.3133919E+00	8.0287457E-05
1.6633416E+00	1.3131087E+00	7.8858808E-05
1.6738113E+00	1.3128171E+00	7.8113750E-05
1.6844136E+00	1.3125164E+00	7.8242272E-05
1.6951511E+00	1.3122063E+00	7.8925863E-05
1.7060265E+00	1.3118862E+00	8.0341473E-05
1.7170422E+00	1.3115549E+00	8.3457679E-05
1.7282011E+00	1.3112129E+00	8.7823719E-05
1.7395060E+00	1.3108588E+00	9.4041228E-05
1.7509598E+00	1.3104938E+00	1.0321103E-04
1.7625654E+00	1.3101170E+00	1.1302903E-04
1.7743259E+00	1.3097307E+00	1.2387894E-04
1.7862444E+00	1.3093296E+00	1.3016164E-04
1.7983241E+00	1.3089078E+00	1.3100542E-04
1.8105683E+00	1.3084614E+00	1.3235398E-04
1.8229803E+00	1.3079829E+00	1.3371930E-04
1.8355637E+00	1.3074668E+00	1.3975613E-04
1.8483221E+00	1.3068977E+00	1.5442260E-04
1.8612590E+00	1.3062534E+00	2.0292960E-04
1.8743783E+00	1.3054991E+00	3.5179965E-04
1.8876839E+00	1.3047068E+00	7.6911785E-04
1.9011797E+00	1.3042555E+00	1.4899895E-03
1.9148699E+00	1.3042244E+00	1.9440763E-03
1.9287587E+00	1.3042004E+00	2.0959005E-03
1.9428504E+00	1.3040989E+00	2.0461977E-03
1.9571495E+00	1.3038608E+00	1.8600859E-03
1.9716607E+00	1.3034577E+00	1.6319919E-03
1.9863887E+00	1.3029379E+00	1.4082100E-03
2.0013384E+00	1.3023243E+00	1.2140479E-03
2.0165148E+00	1.3016347E+00	1.0468997E-03
2.0319231E+00	1.3008938E+00	9.0155005E-04
2.0475687E+00	1.3000958E+00	7.8690611E-04
2.0634572E+00	1.2992597E+00	6.8238191E-04
2.0795941E+00	1.2983613E+00	5.9698150E-04
2.0959854E+00	1.2974182E+00	5.2766874E-04
2.1126372E+00	1.2964218E+00	4.7135167E-04
2.1295556E+00	1.2953717E+00	4.2795762E-04
2.1467472E+00	1.2942647E+00	3.9479136E-04
2.1642187E+00	1.2930955E+00	3.7335046E-04
2.1819768E+00	1.2918600E+00	3.5953522E-04
2.2000288E+00	1.2905514E+00	3.5287254E-04
2.2183821E+00	1.2891613E+00	3.5450608E-04
2.2370440E+00	1.2876810E+00	3.6574900E-04
2.2560227E+00	1.2861007E+00	3.8510747E-04
2.2753261E+00	1.2844103E+00	4.1723996E-04
2.2949626E+00	1.2825983E+00	4.6388805E-04
2.3149411E+00	1.2806507E+00	5.2475557E-04
2.3352705E+00	1.2785527E+00	6.0245767E-04
2.3559601E+00	1.2763092E+00	7.0583634E-04
2.3770195E+00	1.2738459E+00	8.1223249E-04
2.3984590E+00	1.2711732E+00	9.4654039E-04
2.4202886E+00	1.2682491E+00	1.1102874E-03
2.4425192E+00	1.2650370E+00	1.3059098E-03
2.4651620E+00	1.2615138E+00	1.5878491E-03
2.4882286E+00	1.2576917E+00	1.8789954E-03
2.5117309E+00	1.2534379E+00	2.0155124E-03
2.5356813E+00	1.2485015E+00	2.1101348E-03
2.5600930E+00	1.2426824E+00	2.1516401E-03
2.5849793E+00	1.2357115E+00	2.2705682E-03
2.6103542E+00	1.2273196E+00	2.6048254E-03
2.6362321E+00	1.2172191E+00	3.2139309E-03
2.6626283E+00	1.2042756E+00	3.6757363E-03
2.6895584E+00	1.1853191E+00	5.3794501E-03
2.7170388E+00	1.1591348E+00	1.5512891E-02
2.7450866E+00	1.1340872E+00	3.7340005E-02
2.7737195E+00	1.1115883E+00	6.6986802E-02
2.8029560E+00	1.0936921E+00	1.0886822E-01
2.8328154E+00	1.0879340E+00	1.6257269E-01
2.8633180E+00	1.1016548E+00	2.2128277E-01
2.8944844E+00	1.1345996E+00	2.7451140E-01
2.9263368E+00	1.1828403E+00	3.1831334E-01
2.9588981E+00	1.2449600E+00	3.4499531E-01
2.9921921E+00	1.3069743E+00	3.4976501E-01
3.0262439E+00	1.3627290E+00	3.4261061E-01
3.0610797E+00	1.4148672E+00	3.2631962E-01
3.0967268E+00	1.4650911E+00	3.0249539E-01
3.1332139E+00	1.5125277E+00	2.6210548E-01
3.1705712E+00	1.5446436E+00	2.0504501E-01
3.2088300E+00	1.5489151E+00	1.4372602E-01
3.2480234E+00	1.5344179E+00	9.6255600E-02
3.2881860E+00	1.5131905E+00	6.2911564E-02
3.3293543E+00	1.4917469E+00	4.1519095E-02
3.3715666E+00	1.4719400E+00	2.7197648E-02
3.4148630E+00	1.4548645E+00	1.7869647E-02
3.4592858E+00	1.4399491E+00	1.1648908E-02
3.5048797E+00	1.4271570E+00	7.6635467E-03
3.5516916E+00	1.4160777E+00	5.1920828E-03
3.5997707E+00	1.4065053E+00	3.7526169E-03
3.6491694E+00	1.3983199E+00	3.0590317E-03
3.6999428E+00	1.3911890E+00	2.6311577E-03
3.7521489E+00	1.3847594E+00	2.4536098E-03
3.8058495E+00	1.3788902E+00	2.5658671E-03
3.8611094E+00	1.3734781E+00	2.9478363E-03
3.9179977E+00	1.3685528E+00	3.6965307E-03
3.9765874E+00	1.3641867E+00	4.7033393E-03
4.0369562E+00	1.3603753E+00	5.7804324E-03
4.0991860E+00	1.3569901E+00	6.8025077E-03
4.1633644E+00	1.3537469E+00	7.6773026E-03
4.2295844E+00	1.3504620E+00	8.7683718E-03
4.2979449E+00	1.3474205E+00	1.0245058E-02
4.3685514E+00	1.3447807E+00	1.2082613E-02
4.4415166E+00	1.3428221E+00	1.4092147E-02
4.5169605E+00	1.3415906E+00	1.6313593E-02
4.5950117E+00	1.3418048E+00	1.8053726E-02
4.6758080E+00	1.3428403E+00	1.7839767E-02
4.7594962E+00	1.3427720E+00	1.5651736E-02
4.8462348E+00	1.3408388E+00	1.2903064E-02
4.9361935E+00	1.3373393E+00	1.0432264E-02
5.0295552E+00	1.3327444E+00	8.7742441E-03
5.1265165E+00	1.3274061E+00	7.8474985E-03
5.2272899E+00	1.3213524E+00	7.8294146E-03
5.3321045E+00	1.3147367E+00	8.4257402E-03
5.4412086E+00	1.3069118E+00	9.4799252E-03
5.5548711E+00	1.2959248E+00	1.1714457E-02
5.6733832E+00	1.2810400E+00	1.9130746E-02
5.7970625E+00	1.2620506E+00	3.8855803E-02
5.9262543E+00	1.2590001E+00	8.5557386E-02
6.0613356E+00	1.3111361E+00	1.2131900E-01
6.2027186E+00	1.3614590E+00	9.0113936E-02
6.3508547E+00	1.3574390E+00	5.3069892E-02
6.5062397E+00	1.3438784E+00	4.0708296E-02
6.6694189E+00	1.3344692E+00	3.6928993E-02
6.8409944E+00	1.3275075E+00	3.5530392E-02
7.0216302E+00	1.3217894E+00	3.5138607E-02
7.2120641E+00	1.3164411E+00	3.5167888E-02
7.4131155E+00	1.3112461E+00	3.5487518E-02
7.6256978E+00	1.3060440E+00	3.6015563E-02
7.8508323E+00	1.3006205E+00	3.6456399E-02
8.0896645E+00	1.2942094E+00	3.6286339E-02
8.3434839E+00	1.2865551E+00	3.6903072E-02
8.6137467E+00	1.2772650E+00	3.7663303E-02
8.9021052E+00	1.2668654E+00	3.8579452E-02
9.2104380E+00	1.2533006E+00	3.9948958E-02
9.5408959E+00	1.2357598E+00	4.2138787E-02
9.8959490E+00	1.2106321E+00	4.7121891E-02
1.0278449E+01	1.1787761E+00	5.9591943E-02
1.0691708E+01	1.1345985E+00	8.9513153E-02
1.1139589E+01	1.1004789E+00	1.5020064E-01
1.1626635E+01	1.0925657E+00	2.2685517E-01
1.2158218E+01	1.1140452E+00	3.0505558E-01
1.2740739E+01	1.1583426E+00	3.7278573E-01
1.3381888E+01	1.2214143E+00	4.2567469E-01
1.4090985E+01	1.2965691E+00	4.5775429E-01
1.4879435E+01	1.3750208E+00	4.6486840E-01
1.5761350E+01	1.4465940E+00	4.5142385E-01
1.6754396E+01	1.5046721E+00	4.2167102E-01
1.7880989E+01	1.5493995E+00	3.8406162E-01
1.9170012E+01	1.5759470E+00	3.4266864E-01
2.0659323E+01	1.5909771E+00	3.0634197E-01
2.2399534E+01	1.5984557E+00	2.7384538E-01
2.4459881E+01	1.5984106E+00	2.4385778E-01
2.6937651E+01	1.5860631E+00	2.1886113E-01
2.9973997E+01	1.5641988E+00	2.0584862E-01
3.3781798E+01	1.5257955E+00	2.0694081E-01
3.8697850E+01	1.4713517E+00	2.6969870E-01
4.5288382E+01	1.4865290E+00	4.0594107E-01
5.4584536E+01	1.6403573E+00	5.2000060E-01
6.8682753E+01	1.8479910E+00	4.9227023E-01
9.2599580E+01	1.9749168E+00	3.5931580E-01
1.4207222E+02	1.9673267E+00	2.4295557E-01
3.0504896E+02	1.9485010E+00	3.3672465E-01
