Material: main / H2O / Rowe-273K
Optical constants. P. M. Rowe, M. Fergoda, and S. Neshyba. Temperature-dependent optical properties of liquid water from 240 to 298 K, J. Geophys. Res. Atmos. 125, e2020JD032624 (2020) (Numerical data kindly provided by Penny Rowe)
Comments: Supercooled liquid water (H2O) at 0 Â°C
Specs: {"n_absolute": true, "wavelength_vacuum": true, "temperature": "0 Â°C"}
wavelength (um)	n	k
6.6668373E-01	1.3263638E+00	2.4214387E-08
6.6835935E-01	1.3263539E+00	2.4214387E-08
6.7004342E-01	1.3263434E+00	2.4214387E-08
6.7173599E-01	1.3263329E+00	2.4214387E-08
6.7343718E-01	1.3263222E+00	2.4214387E-08
6.7514696E-01	1.3263115E+00	2.6077032E-08
6.7686545E-01	1.3263007E+00	2.6077032E-08
6.7859271E-01	1.3262899E+00	2.6077032E-08
6.8032880E-01	1.3262789E+00	2.6077032E-08
6.8207380E-01	1.3262678E+00	2.6077032E-08
6.8382778E-01	1.3262567E+00	2.6077032E-08
6.8559080E-01	1.3262454E+00	2.7939677E-08
6.8736294E-01	1.3262341E+00	2.7939677E-08
6.8914430E-01	1.3262226E+00	2.7939677E-08
6.9093488E-01	1.3262111E+00	2.9802322E-08
6.9273478E-01	1.3261995E+00	2.9802322E-08
6.9454409E-01	1.3261878E+00	3.1664968E-08
6.9636288E-01	1.3261759E+00	3.3527613E-08
6.9819121E-01	1.3261640E+00	3.3527613E-08
7.0002917E-01	1.3261520E+00	3.5390258E-08
7.0187683E-01	1.3261399E+00	3.7252903E-08
7.0373427E-01	1.3261277E+00	3.9115548E-08
7.0560162E-01	1.3261153E+00	4.0978193E-08
7.0747886E-01	1.3261029E+00	4.4703484E-08
7.0936611E-01	1.3260904E+00	4.6566129E-08
7.1126345E-01	1.3260777E+00	5.0291419E-08
7.1317098E-01	1.3260650E+00	5.4016709E-08
7.1508876E-01	1.3260521E+00	5.7742000E-08
7.1701688E-01	1.3260392E+00	6.3329935E-08
7.1895543E-01	1.3260261E+00	6.8917871E-08
7.2090449E-01	1.3260129E+00	7.4505806E-08
7.2286420E-01	1.3259996E+00	8.0093741E-08
7.2483454E-01	1.3259862E+00	8.7544322E-08
7.2681565E-01	1.3259726E+00	9.4994903E-08
7.2880762E-01	1.3259590E+00	1.0617077E-07
7.3081054E-01	1.3259452E+00	1.1920929E-07
7.3282450E-01	1.3259313E+00	1.3224781E-07
7.3484959E-01	1.3259173E+00	1.4528632E-07
7.3688590E-01	1.3259031E+00	1.5459955E-07
7.3893353E-01	1.3258889E+00	1.6018748E-07
7.4099262E-01	1.3258745E+00	1.6391277E-07
7.4306317E-01	1.3258600E+00	1.6577542E-07
7.4514532E-01	1.3258453E+00	1.6763806E-07
7.4723918E-01	1.3258305E+00	1.6763806E-07
7.4934483E-01	1.3258156E+00	1.6950071E-07
7.5146238E-01	1.3258005E+00	1.6950071E-07
7.5359194E-01	1.3257853E+00	1.7136335E-07
7.5573360E-01	1.3257700E+00	1.7136335E-07
7.5788747E-01	1.3257545E+00	1.7136335E-07
7.6005371E-01	1.3257389E+00	1.7136335E-07
7.6223230E-01	1.3257232E+00	1.7322600E-07
7.6442343E-01	1.3257073E+00	1.7322600E-07
7.6662719E-01	1.3256912E+00	1.7322600E-07
7.6884369E-01	1.3256750E+00	1.7136335E-07
7.7107304E-01	1.3256586E+00	1.7136335E-07
7.7331536E-01	1.3256421E+00	1.6950071E-07
7.7557076E-01	1.3256255E+00	1.6950071E-07
7.7783936E-01	1.3256086E+00	1.6763806E-07
7.8012132E-01	1.3255917E+00	1.6577542E-07
7.8241666E-01	1.3255745E+00	1.6391277E-07
7.8472554E-01	1.3255572E+00	1.6205013E-07
7.8704808E-01	1.3255397E+00	1.5832484E-07
7.8938442E-01	1.3255221E+00	1.5459955E-07
7.9173467E-01	1.3255043E+00	1.5273690E-07
7.9409896E-01	1.3254863E+00	1.4901161E-07
7.9647740E-01	1.3254681E+00	1.4714897E-07
7.9887014E-01	1.3254498E+00	1.4342368E-07
8.0127736E-01	1.3254312E+00	1.4156103E-07
8.0369907E-01	1.3254125E+00	1.3969839E-07
8.0613546E-01	1.3253936E+00	1.3969839E-07
8.0858667E-01	1.3253746E+00	1.3969839E-07
8.1105283E-01	1.3253553E+00	1.3969839E-07
8.1353408E-01	1.3253358E+00	1.4342368E-07
8.1603056E-01	1.3253162E+00	1.4528632E-07
8.1854241E-01	1.3252963E+00	1.4901161E-07
8.2106977E-01	1.3252763E+00	1.5459955E-07
8.2361285E-01	1.3252560E+00	1.6391277E-07
8.2617166E-01	1.3252355E+00	1.7881393E-07
8.2874643E-01	1.3252149E+00	1.9930303E-07
8.3133729E-01	1.3251940E+00	2.2351742E-07
8.3394441E-01	1.3251729E+00	2.4214387E-07
8.3656792E-01	1.3251516E+00	2.5331974E-07
8.3920800E-01	1.3251301E+00	2.6077032E-07
8.4186479E-01	1.3251083E+00	2.6822090E-07
8.4453846E-01	1.3250864E+00	2.7380884E-07
8.4722923E-01	1.3250642E+00	2.7939677E-07
8.4993714E-01	1.3250417E+00	2.8312206E-07
8.5266241E-01	1.3250191E+00	2.8684735E-07
8.5540521E-01	1.3249961E+00	2.9429793E-07
8.5816572E-01	1.3249730E+00	2.9802322E-07
8.6094410E-01	1.3249496E+00	3.0547380E-07
8.6374053E-01	1.3249259E+00	3.1292439E-07
8.6655518E-01	1.3249020E+00	3.2037497E-07
8.6938824E-01	1.3248778E+00	3.2782555E-07
8.7223996E-01	1.3248534E+00	3.3713877E-07
8.7511037E-01	1.3248287E+00	3.4831464E-07
8.7799974E-01	1.3248037E+00	3.5949051E-07
8.8090825E-01	1.3247785E+00	3.7252903E-07
8.8383610E-01	1.3247529E+00	3.8556755E-07
8.8678347E-01	1.3247271E+00	3.9860606E-07
8.8975056E-01	1.3247010E+00	4.1164458E-07
8.9273758E-01	1.3246746E+00	4.2468309E-07
8.9574472E-01	1.3246479E+00	4.3958426E-07
8.9877227E-01	1.3246209E+00	4.5262277E-07
9.0182027E-01	1.3245936E+00	4.6566129E-07
9.0488902E-01	1.3245660E+00	4.8242509E-07
9.0797872E-01	1.3245381E+00	5.0105155E-07
9.1108959E-01	1.3245098E+00	5.2340329E-07
9.1422185E-01	1.3244812E+00	5.5134296E-07
9.1737573E-01	1.3244523E+00	5.8859587E-07
9.2055144E-01	1.3244230E+00	6.3888729E-07
9.2374921E-01	1.3243934E+00	7.0780516E-07
9.2696937E-01	1.3243634E+00	7.9907477E-07
9.3021196E-01	1.3243331E+00	9.1269612E-07
9.3347733E-01	1.3243024E+00	1.0449439E-06
9.3676569E-01	1.3242714E+00	1.1809170E-06
9.4007731E-01	1.3242400E+00	1.3709068E-06
9.4341242E-01	1.3242082E+00	1.5795231E-06
9.4677129E-01	1.3241761E+00	1.8421561E-06
9.5015415E-01	1.3241435E+00	2.1960586E-06
9.5356128E-01	1.3241107E+00	2.6468188E-06
9.5699302E-01	1.3240778E+00	3.0975789E-06
9.6044946E-01	1.3240445E+00	3.4049153E-06
9.6393096E-01	1.3240108E+00	3.5688281E-06
9.6743779E-01	1.3239766E+00	3.6656857E-06
9.7097022E-01	1.3239420E+00	3.7215650E-06
9.7452855E-01	1.3239070E+00	3.7681311E-06
9.7811306E-01	1.3238715E+00	3.7793070E-06
9.8172403E-01	1.3238355E+00	3.7457794E-06
9.8536176E-01	1.3237991E+00	3.6880374E-06
9.8902665E-01	1.3237622E+00	3.5967678E-06
9.9271880E-01	1.3237248E+00	3.4794211E-06
9.9643863E-01	1.3236869E+00	3.3639371E-06
1.0001864E+00	1.3236484E+00	3.2316893E-06
1.0039625E+00	1.3236095E+00	3.0901283E-06
1.0077673E+00	1.3235700E+00	2.9318035E-06
1.0116010E+00	1.3235300E+00	2.7623028E-06
1.0154639E+00	1.3234894E+00	2.6095659E-06
1.0193565E+00	1.3234483E+00	2.4512410E-06
1.0232790E+00	1.3234066E+00	2.2742897E-06
1.0272319E+00	1.3233643E+00	2.1159649E-06
1.0312154E+00	1.3233214E+00	1.9483268E-06
1.0352299E+00	1.3232780E+00	1.8067658E-06
1.0392758E+00	1.3232339E+00	1.6763806E-06
1.0433534E+00	1.3231892E+00	1.5627593E-06
1.0474632E+00	1.3231438E+00	1.4491379E-06
1.0516055E+00	1.3230979E+00	1.3671815E-06
1.0557806E+00	1.3230512E+00	1.2945384E-06
1.0599891E+00	1.3230040E+00	1.2516975E-06
1.0642312E+00	1.3229560E+00	1.2181699E-06
1.0685074E+00	1.3229074E+00	1.1995435E-06
1.0728182E+00	1.3228581E+00	1.1995435E-06
1.0771638E+00	1.3228080E+00	1.2256205E-06
1.0815448E+00	1.3227573E+00	1.2572855E-06
1.0859616E+00	1.3227058E+00	1.3317913E-06
1.0904146E+00	1.3226535E+00	1.4100224E-06
1.0949043E+00	1.3226005E+00	1.5087426E-06
1.0994311E+00	1.3225467E+00	1.6447157E-06
1.1039955E+00	1.3224921E+00	1.7657876E-06
1.1085979E+00	1.3224367E+00	1.9073486E-06
1.1132389E+00	1.3223804E+00	2.0582229E-06
1.1179189E+00	1.3223232E+00	2.1494925E-06
1.1226384E+00	1.3222650E+00	2.3785979E-06
1.1273979E+00	1.3222057E+00	2.7026981E-06
1.1321980E+00	1.3221455E+00	3.3397228E-06
1.1370391E+00	1.3220842E+00	4.4479966E-06
1.1419218E+00	1.3220225E+00	6.0461462E-06
1.1468466E+00	1.3219604E+00	7.8584999E-06
1.1518140E+00	1.3218980E+00	9.4529241E-06
1.1568247E+00	1.3218351E+00	1.0425225E-05
1.1618792E+00	1.3217709E+00	1.0941178E-05
1.1669780E+00	1.3217055E+00	1.1153519E-05
1.1721218E+00	1.3216388E+00	1.1371449E-05
1.1773111E+00	1.3215710E+00	1.1518598E-05
1.1825466E+00	1.3215020E+00	1.1717901E-05
1.1878288E+00	1.3214318E+00	1.1904165E-05
1.1931585E+00	1.3213604E+00	1.2092292E-05
1.1985362E+00	1.3212880E+00	1.2205914E-05
1.2039626E+00	1.3212140E+00	1.2148172E-05
1.2094383E+00	1.3211389E+00	1.2086704E-05
1.2149641E+00	1.3210624E+00	1.1986122E-05
1.2205406E+00	1.3209844E+00	1.1777505E-05
1.2261686E+00	1.3209050E+00	1.1689961E-05
1.2318486E+00	1.3208241E+00	1.1587515E-05
1.2375816E+00	1.3207417E+00	1.1401251E-05
1.2433681E+00	1.3206577E+00	1.1319295E-05
1.2492091E+00	1.3205721E+00	1.1125579E-05
1.2551051E+00	1.3204846E+00	1.0987744E-05
1.2610571E+00	1.3203956E+00	1.0961667E-05
1.2670658E+00	1.3203046E+00	1.0898337E-05
1.2731321E+00	1.3202117E+00	1.1041760E-05
1.2792567E+00	1.3201169E+00	1.1326745E-05
1.2854405E+00	1.3200202E+00	1.1904165E-05
1.2916844E+00	1.3199214E+00	1.2451783E-05
1.2979892E+00	1.3198205E+00	1.3280660E-05
1.3043559E+00	1.3197172E+00	1.4450401E-05
1.3107854E+00	1.3196117E+00	1.6015023E-05
1.3172785E+00	1.3195039E+00	1.8009916E-05
1.3238363E+00	1.3193938E+00	2.0528212E-05
1.3304598E+00	1.3192813E+00	2.3605302E-05
1.3371498E+00	1.3191664E+00	2.7155504E-05
1.3439075E+00	1.3190487E+00	3.0810013E-05
1.3507338E+00	1.3189287E+00	3.4589320E-05
1.3576298E+00	1.3188040E+00	3.7895516E-05
1.3645966E+00	1.3186737E+00	4.1885301E-05
1.3716352E+00	1.3185365E+00	4.8045069E-05
1.3787469E+00	1.3183910E+00	5.9710816E-05
1.3859327E+00	1.3182375E+00	8.3265826E-05
1.3931937E+00	1.3180817E+00	1.2553297E-04
1.4005313E+00	1.3179461E+00	1.8899888E-04
1.4079465E+00	1.3178320E+00	2.4646148E-04
1.4154407E+00	1.3177331E+00	2.9283203E-04
1.4230151E+00	1.3176315E+00	3.2376125E-04
1.4306710E+00	1.3175327E+00	3.4969300E-04
1.4384097E+00	1.3174335E+00	3.6830083E-04
1.4462326E+00	1.3173283E+00	3.7503615E-04
1.4541411E+00	1.3172211E+00	3.7913956E-04
1.4621365E+00	1.3171140E+00	3.7680566E-04
1.4702203E+00	1.3169999E+00	3.5883300E-04
1.4783940E+00	1.3168765E+00	3.3568963E-04
1.4866592E+00	1.3167366E+00	3.0904822E-04
1.4950172E+00	1.3165870E+00	2.7797371E-04
1.5034697E+00	1.3164270E+00	2.5203079E-04
1.5120184E+00	1.3162585E+00	2.2673607E-04
1.5206648E+00	1.3160802E+00	2.0371750E-04
1.5294108E+00	1.3158946E+00	1.8635020E-04
1.5382578E+00	1.3157072E+00	1.6937032E-04
1.5472079E+00	1.3155086E+00	1.5079230E-04
1.5562627E+00	1.3153072E+00	1.3844296E-04
1.5654241E+00	1.3150978E+00	1.2639910E-04
1.5746940E+00	1.3148825E+00	1.1695176E-04
1.5840743E+00	1.3146631E+00	1.0955893E-04
1.5935671E+00	1.3144375E+00	1.0218844E-04
1.6031743E+00	1.3142058E+00	9.6661970E-05
1.6128981E+00	1.3139681E+00	9.2297792E-05
1.6227405E+00	1.3137243E+00	8.8138506E-05
1.6327038E+00	1.3134738E+00	8.4882602E-05
1.6427902E+00	1.3132155E+00	8.2254410E-05
1.6530020E+00	1.3129507E+00	8.0287457E-05
1.6633416E+00	1.3126774E+00	7.8858808E-05
1.6738113E+00	1.3123960E+00	7.8113750E-05
1.6844136E+00	1.3121058E+00	7.8242272E-05
1.6951511E+00	1.3118065E+00	7.8925863E-05
1.7060265E+00	1.3114975E+00	8.0341473E-05
1.7170422E+00	1.3111775E+00	8.3457679E-05
1.7282011E+00	1.3108474E+00	8.7823719E-05
1.7395060E+00	1.3105055E+00	9.4041228E-05
1.7509598E+00	1.3101530E+00	1.0321103E-04
1.7625654E+00	1.3097891E+00	1.1302903E-04
1.7743259E+00	1.3094162E+00	1.2387894E-04
1.7862444E+00	1.3090290E+00	1.3016164E-04
1.7983241E+00	1.3086214E+00	1.3100542E-04
1.8105683E+00	1.3081897E+00	1.3235398E-04
1.8229803E+00	1.3077266E+00	1.3371930E-04
1.8355637E+00	1.3072262E+00	1.3975613E-04
1.8483221E+00	1.3066735E+00	1.5442260E-04
1.8612590E+00	1.3060461E+00	2.0292960E-04
1.8743783E+00	1.3053093E+00	3.5179965E-04
1.8876839E+00	1.3045353E+00	7.6911785E-04
1.9011797E+00	1.3041028E+00	1.4899895E-03
1.9148699E+00	1.3040914E+00	1.9440763E-03
1.9287587E+00	1.3040877E+00	2.0959005E-03
1.9428504E+00	1.3040075E+00	2.0461977E-03
1.9571495E+00	1.3037913E+00	1.8600859E-03
1.9716607E+00	1.3034112E+00	1.6319919E-03
1.9863887E+00	1.3029153E+00	1.4082100E-03
2.0013384E+00	1.3023265E+00	1.2140479E-03
2.0165148E+00	1.3016629E+00	1.0468997E-03
2.0319231E+00	1.3009491E+00	9.0155005E-04
2.0475687E+00	1.3001793E+00	7.8690611E-04
2.0634572E+00	1.2993727E+00	6.8238191E-04
2.0795941E+00	1.2985053E+00	5.9698150E-04
2.0959854E+00	1.2975945E+00	5.2766874E-04
2.1126372E+00	1.2966320E+00	4.7135167E-04
2.1295556E+00	1.2956175E+00	4.2795762E-04
2.1467472E+00	1.2945478E+00	3.9479136E-04
2.1642187E+00	1.2934178E+00	3.7335046E-04
2.1819768E+00	1.2922235E+00	3.5953522E-04
2.2000288E+00	1.2909581E+00	3.5287254E-04
2.2183821E+00	1.2896136E+00	3.5450608E-04
2.2370440E+00	1.2881813E+00	3.6574900E-04
2.2560227E+00	1.2866515E+00	3.8510747E-04
2.2753261E+00	1.2850145E+00	4.1723996E-04
2.2949626E+00	1.2832587E+00	4.6388805E-04
2.3149411E+00	1.2813704E+00	5.2475557E-04
2.3352705E+00	1.2793349E+00	6.0245767E-04
2.3559601E+00	1.2771572E+00	7.0583634E-04
2.3770195E+00	1.2747631E+00	8.1223249E-04
2.3984590E+00	1.2721628E+00	9.4654039E-04
2.4202886E+00	1.2693141E+00	1.1102874E-03
2.4425192E+00	1.2661800E+00	1.3059098E-03
2.4651620E+00	1.2627363E+00	1.5878491E-03
2.4882286E+00	1.2589934E+00	1.8789954E-03
2.5117309E+00	1.2548150E+00	2.0155124E-03
2.5356813E+00	1.2499444E+00	2.1101348E-03
2.5600930E+00	1.2441706E+00	2.1516401E-03
2.5849793E+00	1.2372021E+00	2.2705682E-03
2.6103542E+00	1.2287198E+00	2.6048254E-03
2.6362321E+00	1.2182439E+00	3.2609915E-03
2.6626283E+00	1.2046782E+00	4.2282085E-03
2.6895584E+00	1.1847026E+00	6.8228460E-03
2.7170388E+00	1.1565378E+00	2.0471130E-02
2.7450866E+00	1.1350839E+00	5.0428785E-02
2.7737195E+00	1.1221841E+00	8.0628031E-02
2.8029560E+00	1.1120938E+00	1.2103369E-01
2.8328154E+00	1.1143103E+00	1.6798258E-01
2.8633180E+00	1.1315348E+00	2.1563275E-01
2.8944844E+00	1.1616523E+00	2.5846076E-01
2.9263368E+00	1.2047125E+00	2.9519784E-01
2.9588981E+00	1.2593656E+00	3.1668250E-01
2.9921921E+00	1.3147531E+00	3.1927136E-01
3.0262439E+00	1.3623464E+00	3.1210631E-01
3.0610797E+00	1.4079741E+00	2.9704534E-01
3.0967268E+00	1.4517025E+00	2.7878658E-01
3.1332139E+00	1.4973748E+00	2.4508016E-01
3.1705712E+00	1.5334925E+00	1.9091719E-01
3.2088300E+00	1.5353423E+00	1.2715941E-01
3.2480234E+00	1.5153998E+00	8.2295458E-02
3.2881860E+00	1.4924331E+00	5.6573773E-02
3.3293543E+00	1.4740579E+00	4.0469200E-02
3.3715666E+00	1.4578536E+00	2.7945624E-02
3.4148630E+00	1.4432484E+00	1.9430687E-02
3.4592858E+00	1.4304826E+00	1.3194791E-02
3.5048797E+00	1.4188263E+00	8.9982668E-03
3.5516916E+00	1.4086906E+00	6.4376084E-03
3.5997707E+00	1.3999459E+00	4.9187991E-03
3.6491694E+00	1.3924071E+00	3.9774458E-03
3.6999428E+00	1.3857351E+00	3.3818915E-03
3.7521489E+00	1.3797011E+00	3.0793725E-03
3.8058495E+00	1.3741694E+00	3.0845731E-03
3.8611094E+00	1.3691212E+00	3.4150196E-03
3.9179977E+00	1.3646145E+00	3.9825500E-03
3.9765874E+00	1.3605787E+00	4.6567996E-03
4.0369562E+00	1.3568831E+00	5.3337923E-03
4.0991860E+00	1.3533342E+00	6.0481583E-03
4.1633644E+00	1.3499563E+00	7.0303244E-03
4.2295844E+00	1.3469180E+00	8.1540766E-03
4.2979449E+00	1.3440229E+00	9.2963668E-03
4.3685514E+00	1.3412834E+00	1.0824551E-02
4.4415166E+00	1.3390773E+00	1.2666602E-02
4.5169605E+00	1.3376413E+00	1.4633739E-02
4.5950117E+00	1.3371258E+00	1.6087668E-02
4.6758080E+00	1.3371179E+00	1.6560369E-02
4.7594962E+00	1.3369447E+00	1.5662200E-02
4.8462348E+00	1.3356361E+00	1.3766386E-02
4.9361935E+00	1.3329381E+00	1.1686176E-02
5.0295552E+00	1.3290218E+00	1.0017162E-02
5.1265165E+00	1.3242054E+00	8.9820129E-03
5.2272899E+00	1.3185919E+00	8.6593789E-03
5.3321045E+00	1.3122644E+00	8.9829950E-03
5.4412086E+00	1.3046633E+00	9.8210573E-03
5.5548711E+00	1.2943943E+00	1.1875461E-02
5.6733832E+00	1.2802267E+00	1.7553814E-02
5.7970625E+00	1.2593419E+00	3.4059472E-02
5.9262543E+00	1.2491420E+00	8.1710019E-02
6.0613356E+00	1.3018735E+00	1.2874781E-01
6.2027186E+00	1.3658823E+00	9.4160911E-02
6.3508547E+00	1.3549601E+00	5.0581066E-02
6.5062397E+00	1.3412509E+00	4.0708296E-02
6.6694189E+00	1.3319891E+00	3.6928993E-02
6.8409944E+00	1.3250907E+00	3.5530392E-02
7.0216302E+00	1.3194477E+00	3.5138607E-02
7.2120641E+00	1.3141949E+00	3.5167888E-02
7.4131155E+00	1.3091185E+00	3.5487518E-02
7.6256978E+00	1.3040618E+00	3.6015563E-02
7.8508323E+00	1.2988162E+00	3.6456399E-02
8.0896645E+00	1.2926217E+00	3.6286339E-02
8.3434839E+00	1.2852281E+00	3.6903072E-02
8.6137467E+00	1.2762319E+00	3.7663303E-02
8.9021052E+00	1.2659177E+00	3.8631114E-02
9.2104380E+00	1.2530048E+00	4.0947456E-02
9.5408959E+00	1.2368270E+00	4.4292519E-02
9.8959490E+00	1.2158729E+00	5.0439916E-02
1.0278449E+01	1.1894904E+00	6.2979579E-02
1.0691708E+01	1.1598369E+00	8.4037803E-02
1.1139589E+01	1.1235645E+00	1.2284352E-01
1.1626635E+01	1.1028569E+00	1.8627132E-01
1.2158218E+01	1.1072607E+00	2.5828887E-01
1.2740739E+01	1.1341177E+00	3.2705997E-01
1.3381888E+01	1.1816922E+00	3.8691828E-01
1.4090985E+01	1.2442187E+00	4.2963727E-01
1.4879435E+01	1.3128280E+00	4.5290142E-01
1.5761350E+01	1.3826008E+00	4.5859595E-01
1.6754396E+01	1.4448080E+00	4.4669986E-01
1.7880989E+01	1.5035452E+00	4.2189123E-01
1.9170012E+01	1.5404566E+00	3.8470960E-01
2.0659323E+01	1.5637726E+00	3.5152151E-01
2.2399534E+01	1.5785797E+00	3.2195677E-01
2.4459881E+01	1.5862226E+00	2.9564798E-01
2.6937651E+01	1.5854276E+00	2.7356842E-01
2.9973997E+01	1.5757302E+00	2.5874820E-01
3.3781798E+01	1.5507851E+00	2.5576347E-01
3.8697850E+01	1.5090364E+00	2.9910938E-01
4.5288382E+01	1.5213446E+00	4.1264794E-01
5.4584536E+01	1.6437178E+00	5.1672196E-01
6.8682753E+01	1.8280116E+00	5.1921012E-01
9.2599580E+01	1.9622990E+00	4.2155068E-01
1.4207222E+02	1.9946039E+00	3.4183826E-01
3.0504896E+02	2.0528785E+00	4.4474801E-01
