Material: main / H2O / Rowe-263K
Optical constants. P. M. Rowe, M. Fergoda, and S. Neshyba. Temperature-dependent optical properties of liquid water from 240 to 298 K, J. Geophys. Res. Atmos. 125, e2020JD032624 (2020) (Numerical data kindly provided by Penny Rowe)
Comments: Supercooled liquid water (H2O) at -10 Â°C
Specs: {"n_absolute": true, "wavelength_vacuum": true, "temperature": "-10 Â°C"}
wavelength (um)	n	k
6.6668373E-01	1.3270083E+00	2.4214387E-08
6.6835935E-01	1.3269981E+00	2.4214387E-08
6.7004342E-01	1.3269874E+00	2.4214387E-08
6.7173599E-01	1.3269767E+00	2.4214387E-08
6.7343718E-01	1.3269658E+00	2.4214387E-08
6.7514696E-01	1.3269548E+00	2.6077032E-08
6.7686545E-01	1.3269438E+00	2.6077032E-08
6.7859271E-01	1.3269326E+00	2.6077032E-08
6.8032880E-01	1.3269214E+00	2.6077032E-08
6.8207380E-01	1.3269101E+00	2.6077032E-08
6.8382778E-01	1.3268987E+00	2.6077032E-08
6.8559080E-01	1.3268871E+00	2.7939677E-08
6.8736294E-01	1.3268755E+00	2.7939677E-08
6.8914430E-01	1.3268638E+00	2.7939677E-08
6.9093488E-01	1.3268520E+00	2.9802322E-08
6.9273478E-01	1.3268401E+00	2.9802322E-08
6.9454409E-01	1.3268281E+00	3.1664968E-08
6.9636288E-01	1.3268161E+00	3.3527613E-08
6.9819121E-01	1.3268039E+00	3.3527613E-08
7.0002917E-01	1.3267916E+00	3.5390258E-08
7.0187683E-01	1.3267792E+00	3.7252903E-08
7.0373427E-01	1.3267667E+00	3.9115548E-08
7.0560162E-01	1.3267540E+00	4.0978193E-08
7.0747886E-01	1.3267413E+00	4.4703484E-08
7.0936611E-01	1.3267285E+00	4.6566129E-08
7.1126345E-01	1.3267156E+00	5.0291419E-08
7.1317098E-01	1.3267025E+00	5.4016709E-08
7.1508876E-01	1.3266894E+00	5.7742000E-08
7.1701688E-01	1.3266761E+00	6.3329935E-08
7.1895543E-01	1.3266627E+00	6.8917871E-08
7.2090449E-01	1.3266492E+00	7.4505806E-08
7.2286420E-01	1.3266356E+00	8.0093741E-08
7.2483454E-01	1.3266218E+00	8.7544322E-08
7.2681565E-01	1.3266080E+00	9.4994903E-08
7.2880762E-01	1.3265940E+00	1.0617077E-07
7.3081054E-01	1.3265799E+00	1.1920929E-07
7.3282450E-01	1.3265657E+00	1.3224781E-07
7.3484959E-01	1.3265513E+00	1.4528632E-07
7.3688590E-01	1.3265369E+00	1.5459955E-07
7.3893353E-01	1.3265223E+00	1.6018748E-07
7.4099262E-01	1.3265075E+00	1.6391277E-07
7.4306317E-01	1.3264927E+00	1.6577542E-07
7.4514532E-01	1.3264777E+00	1.6763806E-07
7.4723918E-01	1.3264625E+00	1.6763806E-07
7.4934483E-01	1.3264473E+00	1.6950071E-07
7.5146238E-01	1.3264319E+00	1.6950071E-07
7.5359194E-01	1.3264163E+00	1.7136335E-07
7.5573360E-01	1.3264006E+00	1.7136335E-07
7.5788747E-01	1.3263848E+00	1.7136335E-07
7.6005371E-01	1.3263688E+00	1.7136335E-07
7.6223230E-01	1.3263527E+00	1.7322600E-07
7.6442343E-01	1.3263364E+00	1.7322600E-07
7.6662719E-01	1.3263199E+00	1.7322600E-07
7.6884369E-01	1.3263034E+00	1.7136335E-07
7.7107304E-01	1.3262866E+00	1.7136335E-07
7.7331536E-01	1.3262697E+00	1.6950071E-07
7.7557076E-01	1.3262527E+00	1.6950071E-07
7.7783936E-01	1.3262354E+00	1.6763806E-07
7.8012132E-01	1.3262181E+00	1.6577542E-07
7.8241666E-01	1.3262005E+00	1.6391277E-07
7.8472554E-01	1.3261828E+00	1.6205013E-07
7.8704808E-01	1.3261649E+00	1.5832484E-07
7.8938442E-01	1.3261468E+00	1.5459955E-07
7.9173467E-01	1.3261286E+00	1.5273690E-07
7.9409896E-01	1.3261102E+00	1.4901161E-07
7.9647740E-01	1.3260916E+00	1.4714897E-07
7.9887014E-01	1.3260728E+00	1.4342368E-07
8.0127736E-01	1.3260539E+00	1.4156103E-07
8.0369907E-01	1.3260347E+00	1.3969839E-07
8.0613546E-01	1.3260154E+00	1.3969839E-07
8.0858667E-01	1.3259958E+00	1.3969839E-07
8.1105283E-01	1.3259761E+00	1.3969839E-07
8.1353408E-01	1.3259562E+00	1.4342368E-07
8.1603056E-01	1.3259361E+00	1.4528632E-07
8.1854241E-01	1.3259158E+00	1.4901161E-07
8.2106977E-01	1.3258952E+00	1.5459955E-07
8.2361285E-01	1.3258745E+00	1.6391277E-07
8.2617166E-01	1.3258535E+00	1.7881393E-07
8.2874643E-01	1.3258324E+00	1.9930303E-07
8.3133729E-01	1.3258110E+00	2.2351742E-07
8.3394441E-01	1.3257894E+00	2.4214387E-07
8.3656792E-01	1.3257676E+00	2.5331974E-07
8.3920800E-01	1.3257456E+00	2.6077032E-07
8.4186479E-01	1.3257233E+00	2.6822090E-07
8.4453846E-01	1.3257009E+00	2.7380884E-07
8.4722923E-01	1.3256781E+00	2.7939677E-07
8.4993714E-01	1.3256552E+00	2.8312206E-07
8.5266241E-01	1.3256319E+00	2.8684735E-07
8.5540521E-01	1.3256085E+00	2.9429793E-07
8.5816572E-01	1.3255848E+00	2.9802322E-07
8.6094410E-01	1.3255608E+00	3.0547380E-07
8.6374053E-01	1.3255366E+00	3.1292439E-07
8.6655518E-01	1.3255121E+00	3.2037497E-07
8.6938824E-01	1.3254874E+00	3.2782555E-07
8.7223996E-01	1.3254623E+00	3.3713877E-07
8.7511037E-01	1.3254371E+00	3.4831464E-07
8.7799974E-01	1.3254115E+00	3.5949051E-07
8.8090825E-01	1.3253856E+00	3.7252903E-07
8.8383610E-01	1.3253595E+00	3.8556755E-07
8.8678347E-01	1.3253331E+00	3.9860606E-07
8.8975056E-01	1.3253064E+00	4.1164458E-07
8.9273758E-01	1.3252794E+00	4.2468309E-07
8.9574472E-01	1.3252520E+00	4.3958426E-07
8.9877227E-01	1.3252244E+00	4.5262277E-07
9.0182027E-01	1.3251965E+00	4.6566129E-07
9.0488902E-01	1.3251682E+00	4.8242509E-07
9.0797872E-01	1.3251396E+00	5.0105155E-07
9.1108959E-01	1.3251107E+00	5.2340329E-07
9.1422185E-01	1.3250814E+00	5.5134296E-07
9.1737573E-01	1.3250518E+00	5.8859587E-07
9.2055144E-01	1.3250218E+00	6.3888729E-07
9.2374921E-01	1.3249915E+00	7.0780516E-07
9.2696937E-01	1.3249608E+00	7.9907477E-07
9.3021196E-01	1.3249297E+00	9.1269612E-07
9.3347733E-01	1.3248983E+00	1.0449439E-06
9.3676569E-01	1.3248666E+00	1.1809170E-06
9.4007731E-01	1.3248344E+00	1.3709068E-06
9.4341242E-01	1.3248019E+00	1.5795231E-06
9.4677129E-01	1.3247690E+00	1.8421561E-06
9.5015415E-01	1.3247357E+00	2.1960586E-06
9.5356128E-01	1.3247021E+00	2.6468188E-06
9.5699302E-01	1.3246683E+00	3.0975789E-06
9.6044946E-01	1.3246342E+00	3.4049153E-06
9.6393096E-01	1.3245997E+00	3.5688281E-06
9.6743779E-01	1.3245647E+00	3.6656857E-06
9.7097022E-01	1.3245293E+00	3.7215650E-06
9.7452855E-01	1.3244934E+00	3.7681311E-06
9.7811306E-01	1.3244571E+00	3.7793070E-06
9.8172403E-01	1.3244203E+00	3.7457794E-06
9.8536176E-01	1.3243830E+00	3.6880374E-06
9.8902665E-01	1.3243452E+00	3.5967678E-06
9.9271880E-01	1.3243068E+00	3.4794211E-06
9.9643863E-01	1.3242680E+00	3.3639371E-06
1.0001864E+00	1.3242287E+00	3.2316893E-06
1.0039625E+00	1.3241888E+00	3.0901283E-06
1.0077673E+00	1.3241484E+00	2.9318035E-06
1.0116010E+00	1.3241074E+00	2.7623028E-06
1.0154639E+00	1.3240658E+00	2.6095659E-06
1.0193565E+00	1.3240237E+00	2.4512410E-06
1.0232790E+00	1.3239810E+00	2.2742897E-06
1.0272319E+00	1.3239377E+00	2.1159649E-06
1.0312154E+00	1.3238938E+00	1.9483268E-06
1.0352299E+00	1.3238493E+00	1.8067658E-06
1.0392758E+00	1.3238041E+00	1.6763806E-06
1.0433534E+00	1.3237584E+00	1.5627593E-06
1.0474632E+00	1.3237120E+00	1.4491379E-06
1.0516055E+00	1.3236649E+00	1.3671815E-06
1.0557806E+00	1.3236171E+00	1.2945384E-06
1.0599891E+00	1.3235687E+00	1.2516975E-06
1.0642312E+00	1.3235196E+00	1.2181699E-06
1.0685074E+00	1.3234698E+00	1.1995435E-06
1.0728182E+00	1.3234193E+00	1.1995435E-06
1.0771638E+00	1.3233681E+00	1.2256205E-06
1.0815448E+00	1.3233161E+00	1.2572855E-06
1.0859616E+00	1.3232634E+00	1.3317913E-06
1.0904146E+00	1.3232099E+00	1.4100224E-06
1.0949043E+00	1.3231556E+00	1.5087426E-06
1.0994311E+00	1.3231005E+00	1.6447157E-06
1.1039955E+00	1.3230446E+00	1.7657876E-06
1.1085979E+00	1.3229879E+00	1.9073486E-06
1.1132389E+00	1.3229302E+00	2.0582229E-06
1.1179189E+00	1.3228716E+00	2.1494925E-06
1.1226384E+00	1.3228120E+00	2.3785979E-06
1.1273979E+00	1.3227514E+00	2.7026981E-06
1.1321980E+00	1.3226897E+00	3.3397228E-06
1.1370391E+00	1.3226270E+00	4.4479966E-06
1.1419218E+00	1.3225638E+00	6.0461462E-06
1.1468466E+00	1.3225002E+00	7.8584999E-06
1.1518140E+00	1.3224362E+00	9.4529241E-06
1.1568247E+00	1.3223717E+00	1.0425225E-05
1.1618792E+00	1.3223060E+00	1.0941178E-05
1.1669780E+00	1.3222390E+00	1.1153519E-05
1.1721218E+00	1.3221707E+00	1.1371449E-05
1.1773111E+00	1.3221013E+00	1.1518598E-05
1.1825466E+00	1.3220305E+00	1.1717901E-05
1.1878288E+00	1.3219586E+00	1.1904165E-05
1.1931585E+00	1.3218855E+00	1.2092292E-05
1.1985362E+00	1.3218113E+00	1.2205914E-05
1.2039626E+00	1.3217356E+00	1.2148172E-05
1.2094383E+00	1.3216586E+00	1.2086704E-05
1.2149641E+00	1.3215802E+00	1.1986122E-05
1.2205406E+00	1.3215004E+00	1.1777505E-05
1.2261686E+00	1.3214190E+00	1.1689961E-05
1.2318486E+00	1.3213362E+00	1.1587515E-05
1.2375816E+00	1.3212517E+00	1.1401251E-05
1.2433681E+00	1.3211657E+00	1.1319295E-05
1.2492091E+00	1.3210780E+00	1.1125579E-05
1.2551051E+00	1.3209885E+00	1.0987744E-05
1.2610571E+00	1.3208973E+00	1.0961667E-05
1.2670658E+00	1.3208041E+00	1.0898337E-05
1.2731321E+00	1.3207090E+00	1.1041760E-05
1.2792567E+00	1.3206119E+00	1.1326745E-05
1.2854405E+00	1.3205129E+00	1.1904165E-05
1.2916844E+00	1.3204118E+00	1.2451783E-05
1.2979892E+00	1.3203084E+00	1.3280660E-05
1.3043559E+00	1.3202028E+00	1.4450401E-05
1.3107854E+00	1.3200948E+00	1.6015023E-05
1.3172785E+00	1.3199844E+00	1.8009916E-05
1.3238363E+00	1.3198717E+00	2.0528212E-05
1.3304598E+00	1.3197566E+00	2.3605302E-05
1.3371498E+00	1.3196389E+00	2.7155504E-05
1.3439075E+00	1.3195186E+00	3.0810013E-05
1.3507338E+00	1.3193957E+00	3.4589320E-05
1.3576298E+00	1.3192682E+00	3.7895516E-05
1.3645966E+00	1.3191350E+00	4.1885301E-05
1.3716352E+00	1.3189948E+00	4.8045069E-05
1.3787469E+00	1.3188463E+00	5.9710816E-05
1.3859327E+00	1.3186897E+00	8.3265826E-05
1.3931937E+00	1.3185307E+00	1.2553297E-04
1.4005313E+00	1.3183918E+00	1.8899888E-04
1.4079465E+00	1.3182745E+00	2.4646148E-04
1.4154407E+00	1.3181722E+00	2.9283203E-04
1.4230151E+00	1.3180671E+00	3.2376125E-04
1.4306710E+00	1.3179648E+00	3.4969300E-04
1.4384097E+00	1.3178619E+00	3.6830083E-04
1.4462326E+00	1.3177531E+00	3.7503615E-04
1.4541411E+00	1.3176421E+00	3.7913956E-04
1.4621365E+00	1.3175311E+00	3.7680566E-04
1.4702203E+00	1.3174131E+00	3.5883300E-04
1.4783940E+00	1.3172857E+00	3.3568963E-04
1.4866592E+00	1.3171416E+00	3.0904822E-04
1.4950172E+00	1.3169877E+00	2.7797371E-04
1.5034697E+00	1.3168234E+00	2.5203079E-04
1.5120184E+00	1.3166504E+00	2.2673607E-04
1.5206648E+00	1.3164676E+00	2.0371750E-04
1.5294108E+00	1.3162773E+00	1.8635020E-04
1.5382578E+00	1.3160851E+00	1.6937032E-04
1.5472079E+00	1.3158816E+00	1.5079230E-04
1.5562627E+00	1.3156752E+00	1.3844296E-04
1.5654241E+00	1.3154605E+00	1.2639910E-04
1.5746940E+00	1.3152399E+00	1.1695176E-04
1.5840743E+00	1.3150151E+00	1.0955893E-04
1.5935671E+00	1.3147839E+00	1.0218844E-04
1.6031743E+00	1.3145465E+00	9.6661970E-05
1.6128981E+00	1.3143028E+00	9.2297792E-05
1.6227405E+00	1.3140529E+00	8.8138506E-05
1.6327038E+00	1.3137962E+00	8.4882602E-05
1.6427902E+00	1.3135315E+00	8.2254410E-05
1.6530020E+00	1.3132600E+00	8.0287457E-05
1.6633416E+00	1.3129799E+00	7.8858808E-05
1.6738113E+00	1.3126915E+00	7.8113750E-05
1.6844136E+00	1.3123940E+00	7.8242272E-05
1.6951511E+00	1.3120873E+00	7.8925863E-05
1.7060265E+00	1.3117706E+00	8.0341473E-05
1.7170422E+00	1.3114428E+00	8.3457679E-05
1.7282011E+00	1.3111044E+00	8.7823719E-05
1.7395060E+00	1.3107541E+00	9.4041228E-05
1.7509598E+00	1.3103929E+00	1.0321103E-04
1.7625654E+00	1.3100201E+00	1.1302903E-04
1.7743259E+00	1.3096378E+00	1.2387894E-04
1.7862444E+00	1.3092410E+00	1.3016164E-04
1.7983241E+00	1.3088234E+00	1.3100542E-04
1.8105683E+00	1.3083815E+00	1.3235398E-04
1.8229803E+00	1.3079077E+00	1.3371930E-04
1.8355637E+00	1.3073963E+00	1.3975613E-04
1.8483221E+00	1.3068321E+00	1.5442260E-04
1.8612590E+00	1.3061928E+00	2.0292960E-04
1.8743783E+00	1.3054438E+00	3.5179965E-04
1.8876839E+00	1.3046569E+00	7.6911785E-04
1.9011797E+00	1.3042112E+00	1.4899895E-03
1.9148699E+00	1.3041859E+00	1.9440763E-03
1.9287587E+00	1.3041678E+00	2.0959005E-03
1.9428504E+00	1.3040726E+00	2.0461977E-03
1.9571495E+00	1.3038408E+00	1.8600859E-03
1.9716607E+00	1.3034444E+00	1.6319919E-03
1.9863887E+00	1.3029315E+00	1.4082100E-03
2.0013384E+00	1.3023249E+00	1.2140479E-03
2.0165148E+00	1.3016427E+00	1.0468997E-03
2.0319231E+00	1.3009095E+00	9.0155005E-04
2.0475687E+00	1.3001194E+00	7.8690611E-04
2.0634572E+00	1.2992914E+00	6.8238191E-04
2.0795941E+00	1.2984016E+00	5.9698150E-04
2.0959854E+00	1.2974673E+00	5.2766874E-04
2.1126372E+00	1.2964801E+00	4.7135167E-04
2.1295556E+00	1.2954395E+00	4.2795762E-04
2.1467472E+00	1.2943424E+00	3.9479136E-04
2.1642187E+00	1.2931833E+00	3.7335046E-04
2.1819768E+00	1.2919584E+00	3.5953522E-04
2.2000288E+00	1.2906607E+00	3.5287254E-04
2.2183821E+00	1.2892818E+00	3.5450608E-04
2.2370440E+00	1.2878132E+00	3.6574900E-04
2.2560227E+00	1.2862448E+00	3.8510747E-04
2.2753261E+00	1.2845667E+00	4.1723996E-04
2.2949626E+00	1.2827671E+00	4.6388805E-04
2.3149411E+00	1.2808321E+00	5.2475557E-04
2.3352705E+00	1.2787468E+00	6.0245767E-04
2.3559601E+00	1.2765158E+00	7.0583634E-04
2.3770195E+00	1.2740646E+00	8.1223249E-04
2.3984590E+00	1.2714032E+00	9.4654039E-04
2.4202886E+00	1.2684890E+00	1.1102874E-03
2.4425192E+00	1.2652849E+00	1.3059098E-03
2.4651620E+00	1.2617664E+00	1.5878491E-03
2.4882286E+00	1.2579440E+00	1.8789954E-03
2.5117309E+00	1.2536822E+00	2.0155124E-03
2.5356813E+00	1.2487255E+00	2.1101348E-03
2.5600930E+00	1.2428665E+00	2.1516401E-03
2.5849793E+00	1.2358215E+00	2.2705682E-03
2.6103542E+00	1.2272911E+00	2.6048254E-03
2.6362321E+00	1.2168744E+00	3.2423492E-03
2.6626283E+00	1.2034759E+00	3.9957838E-03
2.6895584E+00	1.1838149E+00	6.2041164E-03
2.7170388E+00	1.1565909E+00	1.8190513E-02
2.7450866E+00	1.1328964E+00	4.3824570E-02
2.7737195E+00	1.1145563E+00	7.4210815E-02
2.8029560E+00	1.0997136E+00	1.1591246E-01
2.8328154E+00	1.0977527E+00	1.6766653E-01
2.8633180E+00	1.1136919E+00	2.2233254E-01
2.8944844E+00	1.1464178E+00	2.7138869E-01
2.9263368E+00	1.1931919E+00	3.1220853E-01
2.9588981E+00	1.2536306E+00	3.3664295E-01
2.9921921E+00	1.3134807E+00	3.3950836E-01
3.0262439E+00	1.3665698E+00	3.3124328E-01
3.0610797E+00	1.4153811E+00	3.1429537E-01
3.0967268E+00	1.4632727E+00	2.9357305E-01
3.1332139E+00	1.5114992E+00	2.5400404E-01
3.1705712E+00	1.5453117E+00	1.9433689E-01
3.2088300E+00	1.5428270E+00	1.3070269E-01
3.2480234E+00	1.5237975E+00	8.6812480E-02
3.2881860E+00	1.5017146E+00	5.9899822E-02
3.3293543E+00	1.4829820E+00	4.1676682E-02
3.3715666E+00	1.4655085E+00	2.8093723E-02
3.4148630E+00	1.4498629E+00	1.9092713E-02
3.4592858E+00	1.4361625E+00	1.2695504E-02
3.5048797E+00	1.4238913E+00	8.4884784E-03
3.5516916E+00	1.4132482E+00	5.9361322E-03
3.5997707E+00	1.4040605E+00	4.4414755E-03
3.6491694E+00	1.3961905E+00	3.6059493E-03
3.6999428E+00	1.3892757E+00	3.0714884E-03
3.7521489E+00	1.3830253E+00	2.8153042E-03
3.8058495E+00	1.3773012E+00	2.8592163E-03
3.8611094E+00	1.3720543E+00	3.2183536E-03
3.9179977E+00	1.3673399E+00	3.8765090E-03
3.9765874E+00	1.3631521E+00	4.6986259E-03
4.0369562E+00	1.3593908E+00	5.5353044E-03
4.0991860E+00	1.3558742E+00	6.3671489E-03
4.1633644E+00	1.3525206E+00	7.3274314E-03
4.2295844E+00	1.3493858E+00	8.4623611E-03
4.2979449E+00	1.3464337E+00	9.7396940E-03
4.3685514E+00	1.3437362E+00	1.1388353E-02
4.4415166E+00	1.3416333E+00	1.3304616E-02
4.5169605E+00	1.3403095E+00	1.5376624E-02
4.5950117E+00	1.3401237E+00	1.6905139E-02
4.6758080E+00	1.3405445E+00	1.7052228E-02
4.7594962E+00	1.3404160E+00	1.5571464E-02
4.8462348E+00	1.3388177E+00	1.3260730E-02
4.9361935E+00	1.3357301E+00	1.0985967E-02
5.0295552E+00	1.3314750E+00	9.3271596E-03
5.1265165E+00	1.3264169E+00	8.3658543E-03
5.2272899E+00	1.3206213E+00	8.1954609E-03
5.3321045E+00	1.3142052E+00	8.6505921E-03
5.4412086E+00	1.3065531E+00	9.5680599E-03
5.5548711E+00	1.2959691E+00	1.1677546E-02
5.6733832E+00	1.2817211E+00	1.8422447E-02
5.7970625E+00	1.2623072E+00	3.5694328E-02
5.9262543E+00	1.2553882E+00	8.2172272E-02
6.0613356E+00	1.3067869E+00	1.2272842E-01
6.2027186E+00	1.3622139E+00	9.0742539E-02
6.3508547E+00	1.3553559E+00	5.1794906E-02
6.5062397E+00	1.3421851E+00	4.0708296E-02
6.6694189E+00	1.3330076E+00	3.6928993E-02
6.8409944E+00	1.3261593E+00	3.5530392E-02
7.0216302E+00	1.3205250E+00	3.5138607E-02
7.2120641E+00	1.3152498E+00	3.5167888E-02
7.4131155E+00	1.3101251E+00	3.5487518E-02
7.6256978E+00	1.3049956E+00	3.6015563E-02
7.8508323E+00	1.2996507E+00	3.6456399E-02
8.0896645E+00	1.2933270E+00	3.6286339E-02
8.3434839E+00	1.2857694E+00	3.6903072E-02
8.6137467E+00	1.2765742E+00	3.7663303E-02
8.9021052E+00	1.2661139E+00	3.8611647E-02
9.2104380E+00	1.2527962E+00	4.0531952E-02
9.5408959E+00	1.2358137E+00	4.3402313E-02
9.8959490E+00	1.2128042E+00	4.9092293E-02
1.0278449E+01	1.1835761E+00	6.1729221E-02
1.0691708E+01	1.1468820E+00	8.6542650E-02
1.1139589E+01	1.1096323E+00	1.3681103E-01
1.1626635E+01	1.0958545E+00	2.0955767E-01
1.2158218E+01	1.1102096E+00	2.8462174E-01
1.2740739E+01	1.1461905E+00	3.5358453E-01
1.3381888E+01	1.2035431E+00	4.1013076E-01
1.4090985E+01	1.2734315E+00	4.4707283E-01
1.4879435E+01	1.3484285E+00	4.6047945E-01
1.5761350E+01	1.4191273E+00	4.5466516E-01
1.6754396E+01	1.4759542E+00	4.3315444E-01
1.7880989E+01	1.5309954E+00	4.0356357E-01
1.9170012E+01	1.5616063E+00	3.6055796E-01
2.0659323E+01	1.5780554E+00	3.2567801E-01
2.2399534E+01	1.5879566E+00	2.9624701E-01
2.4459881E+01	1.5923262E+00	2.6938920E-01
2.6937651E+01	1.5862871E+00	2.4569117E-01
2.9973997E+01	1.5704855E+00	2.3171265E-01
3.3781798E+01	1.5387386E+00	2.3093068E-01
3.8697850E+01	1.4916159E+00	2.8490499E-01
4.5288382E+01	1.5050467E+00	4.0837688E-01
5.4584536E+01	1.6438453E+00	5.1700647E-01
6.8682753E+01	1.8390566E+00	5.0224131E-01
9.2599580E+01	1.9682099E+00	3.8749723E-01
1.4207222E+02	1.9790245E+00	2.8956919E-01
3.0504896E+02	1.9971178E+00	3.8919806E-01
