Material: inorganic / WS2 / Munkhbat-e
Optical constants. B. Munkhbat, P. Wrobel, T. J. Antosiewicz, T. O. Shegai. Optical constants of several multilayer transition metal dichalcogenides spectroscopic ellipsometry in the 300–1700 nm range: High index, anisotropy, and hyperbolicity, ACS Photonics 9, 2398–2407 (2022) (Numerical data kindly provided by Tomasz Antosiewicz)
Comments: Multilayer flakes. Out-of-plane (extraordinary ray, e). Room temperature.
Specs: {"n_absolute": true, "wavelength_vacuum": true}
wavelength (um)	n
3.000000E-01	3.141171E+00
3.030000E-01	3.124231E+00
3.060000E-01	3.107928E+00
3.090000E-01	3.092227E+00
3.120000E-01	3.077098E+00
3.150000E-01	3.062511E+00
3.180000E-01	3.048439E+00
3.210000E-01	3.034857E+00
3.240000E-01	3.021741E+00
3.270000E-01	3.009068E+00
3.300000E-01	2.996818E+00
3.330000E-01	2.984971E+00
3.360000E-01	2.973508E+00
3.390000E-01	2.962413E+00
3.420000E-01	2.951668E+00
3.450000E-01	2.941259E+00
3.480000E-01	2.931171E+00
3.510000E-01	2.921390E+00
3.540000E-01	2.911903E+00
3.570000E-01	2.902699E+00
3.600000E-01	2.893765E+00
3.630000E-01	2.885090E+00
3.660000E-01	2.876665E+00
3.690000E-01	2.868478E+00
3.720000E-01	2.860522E+00
3.750000E-01	2.852787E+00
3.780000E-01	2.845264E+00
3.810000E-01	2.837946E+00
3.840000E-01	2.830824E+00
3.870000E-01	2.823892E+00
3.900000E-01	2.817143E+00
3.930000E-01	2.810570E+00
3.960000E-01	2.804167E+00
3.990000E-01	2.797927E+00
4.020000E-01	2.791846E+00
4.050000E-01	2.785917E+00
4.080000E-01	2.780135E+00
4.110000E-01	2.774496E+00
4.140000E-01	2.768994E+00
4.170000E-01	2.763625E+00
4.200000E-01	2.758385E+00
4.230000E-01	2.753269E+00
4.260000E-01	2.748274E+00
4.290000E-01	2.743395E+00
4.320000E-01	2.738628E+00
4.350000E-01	2.733971E+00
4.380000E-01	2.729420E+00
4.410000E-01	2.724971E+00
4.440000E-01	2.720622E+00
4.470000E-01	2.716369E+00
4.500000E-01	2.712210E+00
4.530000E-01	2.708141E+00
4.560000E-01	2.704160E+00
4.590000E-01	2.700265E+00
4.620000E-01	2.696452E+00
4.650000E-01	2.692721E+00
4.680000E-01	2.689067E+00
4.710000E-01	2.685489E+00
4.740000E-01	2.681985E+00
4.770000E-01	2.678553E+00
4.800000E-01	2.675191E+00
4.830000E-01	2.671897E+00
4.860000E-01	2.668668E+00
4.890000E-01	2.665504E+00
4.920000E-01	2.662403E+00
4.950000E-01	2.659362E+00
4.980000E-01	2.656380E+00
5.010000E-01	2.653456E+00
5.040000E-01	2.650588E+00
5.070000E-01	2.647775E+00
5.100000E-01	2.645015E+00
5.130000E-01	2.642308E+00
5.160000E-01	2.639650E+00
5.190000E-01	2.637042E+00
5.220000E-01	2.634482E+00
5.250000E-01	2.631969E+00
5.280000E-01	2.629502E+00
5.310000E-01	2.627079E+00
5.340000E-01	2.624700E+00
5.370000E-01	2.622363E+00
5.400000E-01	2.620068E+00
5.430000E-01	2.617813E+00
5.460000E-01	2.615597E+00
5.490000E-01	2.613421E+00
5.520000E-01	2.611281E+00
5.550000E-01	2.609179E+00
5.580000E-01	2.607112E+00
5.610000E-01	2.605081E+00
5.640000E-01	2.603084E+00
5.670000E-01	2.601120E+00
5.700000E-01	2.599189E+00
5.730000E-01	2.597290E+00
5.760000E-01	2.595423E+00
5.790000E-01	2.593586E+00
5.820000E-01	2.591779E+00
5.850000E-01	2.590001E+00
5.880000E-01	2.588252E+00
5.910000E-01	2.586531E+00
5.940000E-01	2.584837E+00
5.970000E-01	2.583170E+00
6.000000E-01	2.581530E+00
6.030000E-01	2.579915E+00
6.060000E-01	2.578325E+00
6.090000E-01	2.576760E+00
6.120000E-01	2.575219E+00
6.150000E-01	2.573702E+00
6.180000E-01	2.572208E+00
6.210000E-01	2.570736E+00
6.240000E-01	2.569287E+00
6.270000E-01	2.567859E+00
6.300000E-01	2.566453E+00
6.330000E-01	2.565067E+00
6.360000E-01	2.563702E+00
6.390000E-01	2.562357E+00
6.420000E-01	2.561032E+00
6.450000E-01	2.559726E+00
6.480000E-01	2.558439E+00
6.510000E-01	2.557171E+00
6.540000E-01	2.555920E+00
6.570000E-01	2.554688E+00
6.600000E-01	2.553473E+00
6.630000E-01	2.552275E+00
6.660000E-01	2.551094E+00
6.690000E-01	2.549929E+00
6.720000E-01	2.548781E+00
6.750000E-01	2.547648E+00
6.780000E-01	2.546531E+00
6.810000E-01	2.545430E+00
6.840000E-01	2.544343E+00
6.870000E-01	2.543271E+00
6.900000E-01	2.542214E+00
6.930000E-01	2.541171E+00
6.960000E-01	2.540142E+00
6.990000E-01	2.539127E+00
7.020000E-01	2.538125E+00
7.050000E-01	2.537136E+00
7.080000E-01	2.536161E+00
7.110000E-01	2.535198E+00
7.140000E-01	2.534247E+00
7.170000E-01	2.533309E+00
7.200000E-01	2.532384E+00
7.230000E-01	2.531470E+00
7.260000E-01	2.530567E+00
7.290000E-01	2.529676E+00
7.320000E-01	2.528797E+00
7.350000E-01	2.527929E+00
7.380000E-01	2.527071E+00
7.410000E-01	2.526224E+00
7.440000E-01	2.525388E+00
7.470000E-01	2.524563E+00
7.500000E-01	2.523747E+00
7.530000E-01	2.522941E+00
7.560000E-01	2.522146E+00
7.590000E-01	2.521360E+00
7.620000E-01	2.520584E+00
7.650000E-01	2.519817E+00
7.680000E-01	2.519059E+00
7.710000E-01	2.518310E+00
7.740000E-01	2.517570E+00
7.770000E-01	2.516840E+00
7.800000E-01	2.516117E+00
7.830000E-01	2.515404E+00
7.860000E-01	2.514698E+00
7.890000E-01	2.514001E+00
7.920000E-01	2.513313E+00
7.950000E-01	2.512632E+00
7.980000E-01	2.511959E+00
8.010000E-01	2.511293E+00
8.040000E-01	2.510636E+00
8.070000E-01	2.509986E+00
8.100000E-01	2.509343E+00
8.130000E-01	2.508708E+00
8.160000E-01	2.508079E+00
8.190000E-01	2.507458E+00
8.220000E-01	2.506844E+00
8.250000E-01	2.506237E+00
8.280000E-01	2.505636E+00
8.310000E-01	2.505043E+00
8.340000E-01	2.504455E+00
8.370000E-01	2.503874E+00
8.400000E-01	2.503300E+00
8.430000E-01	2.502732E+00
8.460000E-01	2.502170E+00
8.490000E-01	2.501614E+00
8.520000E-01	2.501064E+00
8.550000E-01	2.500520E+00
8.580000E-01	2.499982E+00
8.610000E-01	2.499449E+00
8.640000E-01	2.498923E+00
8.670000E-01	2.498401E+00
8.700000E-01	2.497886E+00
8.730000E-01	2.497376E+00
8.760000E-01	2.496871E+00
8.790000E-01	2.496371E+00
8.820000E-01	2.495877E+00
8.850000E-01	2.495388E+00
8.880000E-01	2.494903E+00
8.910000E-01	2.494424E+00
8.940000E-01	2.493950E+00
8.970000E-01	2.493481E+00
9.000000E-01	2.493016E+00
9.030000E-01	2.492556E+00
9.060000E-01	2.492101E+00
9.090000E-01	2.491650E+00
9.120000E-01	2.491204E+00
9.150000E-01	2.490763E+00
9.180000E-01	2.490325E+00
9.210000E-01	2.489893E+00
9.240000E-01	2.489464E+00
9.270000E-01	2.489040E+00
9.300000E-01	2.488619E+00
9.330000E-01	2.488203E+00
9.360000E-01	2.487792E+00
9.390000E-01	2.487384E+00
9.420000E-01	2.486980E+00
9.450000E-01	2.486580E+00
9.480000E-01	2.486184E+00
9.510000E-01	2.485791E+00
9.540000E-01	2.485403E+00
9.570000E-01	2.485018E+00
9.600000E-01	2.484637E+00
9.630000E-01	2.484259E+00
9.660000E-01	2.483885E+00
9.690000E-01	2.483515E+00
9.720000E-01	2.483148E+00
9.750000E-01	2.482784E+00
9.780000E-01	2.482424E+00
9.810000E-01	2.482067E+00
9.840000E-01	2.481714E+00
9.870000E-01	2.481364E+00
9.900000E-01	2.481017E+00
9.930000E-01	2.480673E+00
9.960000E-01	2.480332E+00
9.990000E-01	2.479995E+00
1.005000E+00	2.479329E+00
1.012500E+00	2.478514E+00
1.020000E+00	2.477717E+00
1.027500E+00	2.476938E+00
1.035000E+00	2.476175E+00
1.042500E+00	2.475430E+00
1.050000E+00	2.474700E+00
1.057500E+00	2.473987E+00
1.065000E+00	2.473288E+00
1.072500E+00	2.472605E+00
1.080000E+00	2.471936E+00
1.087500E+00	2.471280E+00
1.095000E+00	2.470639E+00
1.102500E+00	2.470010E+00
1.110000E+00	2.469395E+00
1.117500E+00	2.468792E+00
1.125000E+00	2.468201E+00
1.132500E+00	2.467622E+00
1.140000E+00	2.467055E+00
1.147500E+00	2.466499E+00
1.155000E+00	2.465954E+00
1.162500E+00	2.465419E+00
1.170000E+00	2.464895E+00
1.177500E+00	2.464381E+00
1.185000E+00	2.463877E+00
1.192500E+00	2.463382E+00
1.200000E+00	2.462897E+00
1.207500E+00	2.462421E+00
1.215000E+00	2.461954E+00
1.222500E+00	2.461495E+00
1.230000E+00	2.461045E+00
1.237500E+00	2.460603E+00
1.245000E+00	2.460169E+00
1.252500E+00	2.459743E+00
1.260000E+00	2.459325E+00
1.267500E+00	2.458914E+00
1.275000E+00	2.458511E+00
1.282500E+00	2.458115E+00
1.290000E+00	2.457725E+00
1.297500E+00	2.457343E+00
1.305000E+00	2.456967E+00
1.312500E+00	2.456597E+00
1.320000E+00	2.456234E+00
1.327500E+00	2.455877E+00
1.335000E+00	2.455526E+00
1.342500E+00	2.455181E+00
1.350000E+00	2.454842E+00
1.357500E+00	2.454509E+00
1.365000E+00	2.454181E+00
1.372500E+00	2.453858E+00
1.380000E+00	2.453541E+00
1.387500E+00	2.453229E+00
1.395000E+00	2.452922E+00
1.402500E+00	2.452620E+00
1.410000E+00	2.452323E+00
1.417500E+00	2.452030E+00
1.425000E+00	2.451742E+00
1.432500E+00	2.451459E+00
1.440000E+00	2.451180E+00
1.447500E+00	2.450906E+00
1.455000E+00	2.450636E+00
1.462500E+00	2.450370E+00
1.470000E+00	2.450108E+00
1.477500E+00	2.449850E+00
1.485000E+00	2.449596E+00
1.492500E+00	2.449346E+00
1.500000E+00	2.449099E+00
1.507500E+00	2.448857E+00
1.515000E+00	2.448618E+00
1.522500E+00	2.448382E+00
1.530000E+00	2.448150E+00
1.537500E+00	2.447922E+00
1.545000E+00	2.447696E+00
1.552500E+00	2.447474E+00
1.560000E+00	2.447256E+00
1.567500E+00	2.447040E+00
1.575000E+00	2.446827E+00
1.582500E+00	2.446618E+00
1.590000E+00	2.446412E+00
1.597500E+00	2.446208E+00
1.605000E+00	2.446007E+00
1.612500E+00	2.445809E+00
1.620000E+00	2.445614E+00
1.627500E+00	2.445422E+00
1.635000E+00	2.445232E+00
1.642500E+00	2.445045E+00
1.650000E+00	2.444860E+00
1.657500E+00	2.444678E+00
1.665000E+00	2.444499E+00
1.672500E+00	2.444321E+00
1.680000E+00	2.444147E+00
1.687500E+00	2.443974E+00
