Material: inorganic / WS2 / Munkhbat-o
Optical constants. B. Munkhbat, P. Wrobel, T. J. Antosiewicz, T. O. Shegai. Optical constants of several multilayer transition metal dichalcogenides spectroscopic ellipsometry in the 300–1700 nm range: High index, anisotropy, and hyperbolicity, ACS Photonics 9, 2398–2407 (2022) (Numerical data kindly provided by Tomasz Antosiewicz)
Comments: Multilayer flakes. In-plane (ordinary ray, o). Room temperature.
Specs: {"n_absolute": true, "wavelength_vacuum": true}
wavelength (um)	n	k
3.000000e-01	3.020922e+00	2.025123e+00
3.030000e-01	3.026389e+00	2.044689e+00
3.060000e-01	3.035222e+00	2.063452e+00
3.090000e-01	3.046761e+00	2.081279e+00
3.120000e-01	3.060476e+00	2.098125e+00
3.150000e-01	3.075927e+00	2.114010e+00
3.180000e-01	3.092754e+00	2.129013e+00
3.210000e-01	3.110664e+00	2.143272e+00
3.240000e-01	3.129441e+00	2.156991e+00
3.270000e-01	3.148935e+00	2.170470e+00
3.300000e-01	3.169226e+00	2.184223e+00
3.330000e-01	3.190948e+00	2.198913e+00
3.360000e-01	3.216011e+00	2.214897e+00
3.390000e-01	3.248048e+00	2.229660e+00
3.420000e-01	3.286043e+00	2.233996e+00
3.450000e-01	3.315637e+00	2.226193e+00
3.480000e-01	3.333225e+00	2.220498e+00
3.510000e-01	3.347338e+00	2.221434e+00
3.540000e-01	3.361894e+00	2.226556e+00
3.570000e-01	3.377439e+00	2.234011e+00
3.600000e-01	3.393806e+00	2.243053e+00
3.630000e-01	3.410835e+00	2.253478e+00
3.660000e-01	3.428485e+00	2.265324e+00
3.690000e-01	3.446834e+00	2.278725e+00
3.720000e-01	3.466070e+00	2.293858e+00
3.750000e-01	3.486482e+00	2.310901e+00
3.780000e-01	3.508459e+00	2.330017e+00
3.810000e-01	3.532498e+00	2.351321e+00
3.840000e-01	3.559209e+00	2.374854e+00
3.870000e-01	3.589313e+00	2.400546e+00
3.900000e-01	3.623647e+00	2.428165e+00
3.930000e-01	3.663140e+00	2.457253e+00
3.960000e-01	3.708775e+00	2.487056e+00
3.990000e-01	3.761517e+00	2.516432e+00
4.020000e-01	3.822179e+00	2.543774e+00
4.050000e-01	3.891221e+00	2.566959e+00
4.080000e-01	3.968480e+00	2.583368e+00
4.110000e-01	4.052824e+00	2.590048e+00
4.140000e-01	4.141826e+00	2.584087e+00
4.170000e-01	4.231570e+00	2.563266e+00
4.200000e-01	4.316843e+00	2.526894e+00
4.230000e-01	4.391819e+00	2.476611e+00
4.260000e-01	4.451280e+00	2.416810e+00
4.290000e-01	4.492041e+00	2.354312e+00
4.320000e-01	4.514089e+00	2.297274e+00
4.350000e-01	4.521049e+00	2.253646e+00
4.380000e-01	4.519890e+00	2.229605e+00
4.410000e-01	4.520097e+00	2.228299e+00
4.440000e-01	4.532526e+00	2.248887e+00
4.470000e-01	4.567912e+00	2.285801e+00
4.500000e-01	4.634791e+00	2.328413e+00
4.530000e-01	4.736805e+00	2.361699e+00
4.560000e-01	4.869992e+00	2.368699e+00
4.590000e-01	5.021599e+00	2.335023e+00
4.620000e-01	5.172189e+00	2.254132e+00
4.650000e-01	5.301374e+00	2.130412e+00
4.680000e-01	5.394484e+00	1.977536e+00
4.710000e-01	5.446192e+00	1.812895e+00
4.740000e-01	5.459530e+00	1.651816e+00
4.770000e-01	5.442212e+00	1.504561e+00
4.800000e-01	5.403052e+00	1.376269e+00
4.830000e-01	5.349852e+00	1.268390e+00
4.860000e-01	5.288673e+00	1.180298e+00
4.890000e-01	5.223919e+00	1.110489e+00
4.920000e-01	5.158740e+00	1.057305e+00
4.950000e-01	5.095521e+00	1.019301e+00
4.980000e-01	5.036366e+00	9.953612e-01
5.010000e-01	4.983559e+00	9.844376e-01
5.040000e-01	4.939484e+00	9.854980e-01
5.070000e-01	4.907529e+00	9.972295e-01
5.100000e-01	4.892051e+00	1.016682e+00
5.130000e-01	4.897411e+00	1.037877e+00
5.160000e-01	4.925396e+00	1.050921e+00
5.190000e-01	4.971361e+00	1.043739e+00
5.220000e-01	5.022418e+00	1.007899e+00
5.250000e-01	5.062027e+00	9.450188e-01
5.280000e-01	5.078916e+00	8.665226e-01
5.310000e-01	5.071630e+00	7.862590e-01
5.340000e-01	5.045638e+00	7.138233e-01
5.370000e-01	5.008142e+00	6.531676e-01
5.400000e-01	4.965035e+00	6.044579e-01
5.430000e-01	4.920197e+00	5.661827e-01
5.460000e-01	4.875870e+00	5.364316e-01
5.490000e-01	4.833217e+00	5.134509e-01
5.520000e-01	4.792767e+00	4.958067e-01
5.550000e-01	4.754697e+00	4.823829e-01
5.580000e-01	4.718998e+00	4.723264e-01
5.610000e-01	4.685573e+00	4.649856e-01
5.640000e-01	4.654282e+00	4.598572e-01
5.670000e-01	4.624961e+00	4.565459e-01
5.700000e-01	4.597439e+00	4.547342e-01
5.730000e-01	4.571526e+00	4.541623e-01
5.760000e-01	4.547015e+00	4.546170e-01
5.790000e-01	4.523664e+00	4.559271e-01
5.820000e-01	4.501187e+00	4.579687e-01
5.850000e-01	4.479236e+00	4.606780e-01
5.880000e-01	4.457385e+00	4.640765e-01
5.910000e-01	4.435116e+00	4.683108e-01
5.940000e-01	4.411802e+00	4.737106e-01
5.970000e-01	4.386706e+00	4.808766e-01
6.000000e-01	4.358980e+00	4.908100e-01
6.030000e-01	4.327706e+00	5.051128e-01
6.060000e-01	4.291990e+00	5.263055e-01
6.090000e-01	4.251236e+00	5.583467e-01
6.120000e-01	4.205835e+00	6.074720e-01
6.150000e-01	4.158963e+00	6.834130e-01
6.180000e-01	4.121112e+00	8.004114e-01
6.210000e-01	4.120217e+00	9.742391e-01
6.240000e-01	4.215818e+00	1.201605e+00
6.270000e-01	4.481923e+00	1.404509e+00
6.300000e-01	4.884806e+00	1.413485e+00
6.330000e-01	5.207283e+00	1.171491e+00
6.360000e-01	5.317628e+00	8.536142e-01
6.390000e-01	5.287681e+00	6.017416e-01
6.420000e-01	5.208438e+00	4.320753e-01
6.450000e-01	5.122170e+00	3.205075e-01
6.480000e-01	5.042382e+00	2.452689e-01
6.510000e-01	4.971856e+00	1.925344e-01
6.540000e-01	4.910073e+00	1.541166e-01
6.570000e-01	4.855738e+00	1.251532e-01
6.600000e-01	4.807555e+00	1.026797e-01
6.630000e-01	4.764427e+00	8.482776e-02
6.660000e-01	4.725474e+00	7.037837e-02
6.690000e-01	4.690003e+00	5.850949e-02
6.720000e-01	4.657468e+00	4.864916e-02
6.750000e-01	4.627439e+00	4.038800e-02
6.780000e-01	4.599570e+00	3.342524e-02
6.810000e-01	4.573586e+00	2.753474e-02
6.840000e-01	4.549261e+00	2.254286e-02
6.870000e-01	4.526411e+00	1.831383e-02
6.900000e-01	4.504882e+00	1.473969e-02
6.930000e-01	4.484548e+00	1.173339e-02
6.960000e-01	4.465301e+00	9.223811e-03
6.990000e-01	4.447053e+00	7.152209e-03
7.020000e-01	4.429728e+00	5.469572e-03
7.050000e-01	4.413266e+00	4.134637e-03
7.080000e-01	4.397622e+00	3.112391e-03
7.110000e-01	4.382780e+00	2.362732e-03
7.140000e-01	4.368696e+00	1.785743e-03
7.170000e-01	4.355287e+00	1.352682e-03
7.200000e-01	4.342527e+00	1.037288e-03
7.230000e-01	4.330355e+00	7.787775e-04
7.260000e-01	4.318704e+00	5.665789e-04
7.290000e-01	4.307529e+00	3.951616e-04
7.320000e-01	4.296791e+00	2.598106e-04
7.350000e-01	4.286460e+00	1.564881e-04
7.380000e-01	4.276509e+00	8.172090e-05
7.410000e-01	4.266913e+00	3.250870e-05
7.440000e-01	4.257652e+00	6.249275e-06
7.470000e-01	4.248712e+00	2.258341e-07
7.500000e-01	4.240079e+00	1.996491e-07
7.530000e-01	4.231724e+00	1.751495e-07
7.560000e-01	4.223631e+00	1.523220e-07
7.590000e-01	4.215781e+00	1.311527e-07
7.620000e-01	4.208161e+00	1.116271e-07
7.650000e-01	4.200759e+00	9.373053e-08
7.680000e-01	4.193563e+00	7.744810e-08
7.710000e-01	4.186562e+00	6.276462e-08
7.740000e-01	4.179747e+00	4.966481e-08
7.770000e-01	4.173109e+00	3.813326e-08
7.800000e-01	4.166640e+00	2.815451e-08
7.830000e-01	4.160332e+00	1.971307e-08
7.860000e-01	4.154178e+00	1.279344e-08
7.890000e-01	4.148173e+00	7.380112e-09
7.920000e-01	4.142309e+00	3.457646e-09
7.950000e-01	4.136580e+00	1.010637e-09
7.980000e-01	4.130982e+00	2.375369e-11
8.010000e-01	4.125510e+00	0
8.040000e-01	4.120158e+00	0
8.070000e-01	4.114923e+00	0
8.100000e-01	4.109800e+00	0
8.130000e-01	4.104784e+00	0
8.160000e-01	4.099873e+00	0
8.190000e-01	4.095062e+00	0
8.220000e-01	4.090349e+00	0
8.250000e-01	4.085729e+00	0
8.280000e-01	4.081201e+00	0
8.310000e-01	4.076760e+00	0
8.340000e-01	4.072405e+00	0
8.370000e-01	4.068132e+00	0
8.400000e-01	4.063940e+00	0
8.430000e-01	4.059825e+00	0
8.460000e-01	4.055785e+00	0
8.490000e-01	4.051819e+00	0
8.520000e-01	4.047924e+00	0
8.550000e-01	4.044097e+00	0
8.580000e-01	4.040338e+00	0
8.610000e-01	4.036644e+00	0
8.640000e-01	4.033014e+00	0
8.670000e-01	4.029445e+00	0
8.700000e-01	4.025936e+00	0
8.730000e-01	4.022486e+00	0
8.760000e-01	4.019093e+00	0
8.790000e-01	4.015755e+00	0
8.820000e-01	4.012472e+00	0
8.850000e-01	4.009241e+00	0
8.880000e-01	4.006062e+00	0
8.910000e-01	4.002932e+00	0
8.940000e-01	3.999852e+00	0
8.970000e-01	3.996820e+00	0
9.000000e-01	3.993834e+00	0
9.030000e-01	3.990894e+00	0
9.060000e-01	3.987998e+00	0
9.090000e-01	3.985146e+00	0
9.120000e-01	3.982336e+00	0
9.150000e-01	3.979568e+00	0
9.180000e-01	3.976841e+00	0
9.210000e-01	3.974153e+00	0
9.240000e-01	3.971503e+00	0
9.270000e-01	3.968892e+00	0
9.300000e-01	3.966318e+00	0
9.330000e-01	3.963781e+00	0
9.360000e-01	3.961279e+00	0
9.390000e-01	3.958811e+00	0
9.420000e-01	3.956378e+00	0
9.450000e-01	3.953979e+00	0
9.480000e-01	3.951612e+00	0
9.510000e-01	3.949277e+00	0
9.540000e-01	3.946973e+00	0
9.570000e-01	3.944700e+00	0
9.600000e-01	3.942458e+00	0
9.630000e-01	3.940245e+00	0
9.660000e-01	3.938061e+00	0
9.690000e-01	3.935905e+00	0
9.720000e-01	3.933778e+00	0
9.750000e-01	3.931677e+00	0
9.780000e-01	3.929604e+00	0
9.810000e-01	3.927557e+00	0
9.840000e-01	3.925535e+00	0
9.870000e-01	3.923539e+00	0
9.900000e-01	3.921568e+00	0
9.930000e-01	3.919622e+00	0
9.960000e-01	3.917699e+00	0
9.990000e-01	3.915800e+00	0
1.005000e+00	3.912071e+00	0
1.012500e+00	3.907535e+00	0
1.020000e+00	3.903133e+00	0
1.027500e+00	3.898858e+00	0
1.035000e+00	3.894706e+00	0
1.042500e+00	3.890672e+00	0
1.050000e+00	3.886750e+00	0
1.057500e+00	3.882937e+00	0
1.065000e+00	3.879227e+00	0
1.072500e+00	3.875617e+00	0
1.080000e+00	3.872104e+00	0
1.087500e+00	3.868683e+00	0
1.095000e+00	3.865351e+00	0
1.102500e+00	3.862105e+00	0
1.110000e+00	3.858941e+00	0
1.117500e+00	3.855857e+00	0
1.125000e+00	3.852850e+00	0
1.132500e+00	3.849916e+00	0
1.140000e+00	3.847055e+00	0
1.147500e+00	3.844262e+00	0
1.155000e+00	3.841537e+00	0
1.162500e+00	3.838875e+00	0
1.170000e+00	3.836276e+00	0
1.177500e+00	3.833738e+00	0
1.185000e+00	3.831258e+00	0
1.192500e+00	3.828834e+00	0
1.200000e+00	3.826465e+00	0
1.207500e+00	3.824149e+00	0
1.215000e+00	3.821884e+00	0
1.222500e+00	3.819669e+00	0
1.230000e+00	3.817502e+00	0
1.237500e+00	3.815382e+00	0
1.245000e+00	3.813307e+00	0
1.252500e+00	3.811277e+00	0
1.260000e+00	3.809289e+00	0
1.267500e+00	3.807342e+00	0
1.275000e+00	3.805436e+00	0
1.282500e+00	3.803568e+00	0
1.290000e+00	3.801739e+00	0
1.297500e+00	3.799947e+00	0
1.305000e+00	3.798191e+00	0
1.312500e+00	3.796469e+00	0
1.320000e+00	3.794782e+00	0
1.327500e+00	3.793127e+00	0
1.335000e+00	3.791505e+00	0
1.342500e+00	3.789914e+00	0
1.350000e+00	3.788353e+00	0
1.357500e+00	3.786822e+00	0
1.365000e+00	3.785320e+00	0
1.372500e+00	3.783846e+00	0
1.380000e+00	3.782399e+00	0
1.387500e+00	3.780979e+00	0
1.395000e+00	3.779585e+00	0
1.402500e+00	3.778217e+00	0
1.410000e+00	3.776873e+00	0
1.417500e+00	3.775553e+00	0
1.425000e+00	3.774257e+00	0
1.432500e+00	3.772984e+00	0
1.440000e+00	3.771733e+00	0
1.447500e+00	3.770504e+00	0
1.455000e+00	3.769296e+00	0
1.462500e+00	3.768110e+00	0
1.470000e+00	3.766943e+00	0
1.477500e+00	3.765796e+00	0
1.485000e+00	3.764669e+00	0
1.492500e+00	3.763561e+00	0
1.500000e+00	3.762471e+00	0
1.507500e+00	3.761399e+00	0
1.515000e+00	3.760345e+00	0
1.522500e+00	3.759309e+00	0
1.530000e+00	3.758289e+00	0
1.537500e+00	3.757286e+00	0
1.545000e+00	3.756298e+00	0
1.552500e+00	3.755327e+00	0
1.560000e+00	3.754371e+00	0
1.567500e+00	3.753430e+00	0
1.575000e+00	3.752504e+00	0
1.582500e+00	3.751593e+00	0
1.590000e+00	3.750695e+00	0
1.597500e+00	3.749812e+00	0
1.605000e+00	3.748942e+00	0
1.612500e+00	3.748085e+00	0
1.620000e+00	3.747242e+00	0
1.627500e+00	3.746411e+00	0
1.635000e+00	3.745593e+00	0
1.642500e+00	3.744787e+00	0
1.650000e+00	3.743992e+00	0
1.657500e+00	3.743210e+00	0
1.665000e+00	3.742439e+00	0
1.672500e+00	3.741679e+00	0
1.680000e+00	3.740931e+00	0
1.687500e+00	3.740193e+00	0
