Material: inorganic / Si / Shkondin
Optical constants. E. Shkondin, O. Takayama, M. E. Aryaee Panah, P. Liu, P. V. Larsen, M. D. Mar, F. Jensen, and A. V. Lavrinenko. Large-scale high aspect ratio Al-doped ZnO nanopillars arrays as anisotropic metamaterials, Opt. Mater. Express 7, 1606-1627 (2017) (Numerical data kindly provided by Osamu Takayama)
Comments: Bulk silicone
wavelength (um)	n	k
2.00	3.4698672176	0.0000000426
2.05	3.4698670574	0.0000000460
2.10	3.4698668929	0.0000000495
2.15	3.4698667240	0.0000000533
2.20	3.4698665508	0.0000000572
2.25	3.4698663732	0.0000000614
2.30	3.4698661911	0.0000000657
2.35	3.4698660046	0.0000000702
2.40	3.4698658136	0.0000000750
2.45	3.4698656181	0.0000000800
2.50	3.4698654181	0.0000000852
2.55	3.4698652134	0.0000000907
2.60	3.4698650041	0.0000000964
2.65	3.4698647902	0.0000001023
2.70	3.4698645716	0.0000001085
2.75	3.4698643482	0.0000001150
2.80	3.4698641201	0.0000001217
2.85	3.4698638871	0.0000001287
2.90	3.4698636493	0.0000001361
2.95	3.4698634065	0.0000001437
3.00	3.4698631589	0.0000001516
3.05	3.4698629062	0.0000001598
3.10	3.4698626485	0.0000001683
3.15	3.4698623856	0.0000001772
3.20	3.4698621177	0.0000001864
3.25	3.4698618445	0.0000001960
3.30	3.4698615662	0.0000002059
3.35	3.4698612825	0.0000002162
3.40	3.4698609934	0.0000002269
3.45	3.4698606990	0.0000002379
3.50	3.4698603990	0.0000002494
3.55	3.4698600936	0.0000002612
3.60	3.4698597825	0.0000002735
3.65	3.4698594658	0.0000002862
3.70	3.4698591434	0.0000002994
3.75	3.4698588151	0.0000003130
3.80	3.4698584810	0.0000003271
3.85	3.4698581410	0.0000003416
3.90	3.4698577950	0.0000003567
3.95	3.4698574429	0.0000003722
4.00	3.4698570846	0.0000003883
4.05	3.4698567201	0.0000004049
4.10	3.4698563493	0.0000004221
4.15	3.4698559721	0.0000004398
4.20	3.4698555884	0.0000004582
4.25	3.4698551981	0.0000004771
4.30	3.4698548011	0.0000004966
4.35	3.4698543973	0.0000005168
4.40	3.4698539867	0.0000005376
4.45	3.4698535691	0.0000005591
4.50	3.4698531445	0.0000005812
4.55	3.4698527126	0.0000006041
4.60	3.4698522735	0.0000006277
4.65	3.4698518270	0.0000006521
4.70	3.4698513729	0.0000006773
4.75	3.4698509112	0.0000007032
4.80	3.4698504418	0.0000007299
4.85	3.4698499644	0.0000007576
4.90	3.4698494790	0.0000007860
4.95	3.4698489855	0.0000008154
5.00	3.4698484836	0.0000008457
5.05	3.4698479732	0.0000008769
5.10	3.4698474543	0.0000009092
5.15	3.4698469265	0.0000009424
5.20	3.4698463899	0.0000009767
5.25	3.4698458441	0.0000010121
5.30	3.4698452891	0.0000010486
5.35	3.4698447245	0.0000010862
5.40	3.4698441504	0.0000011250
5.45	3.4698435663	0.0000011651
5.50	3.4698429723	0.0000012064
5.55	3.4698423679	0.0000012491
5.60	3.4698417531	0.0000012931
5.65	3.4698411275	0.0000013385
5.70	3.4698404910	0.0000013853
5.75	3.4698398433	0.0000014337
5.80	3.4698391842	0.0000014836
5.85	3.4698385133	0.0000015352
5.90	3.4698378303	0.0000015884
5.95	3.4698371351	0.0000016434
6.00	3.4698364272	0.0000017002
6.05	3.4698357064	0.0000017589
6.10	3.4698349723	0.0000018195
6.15	3.4698342246	0.0000018821
6.20	3.4698334629	0.0000019469
6.25	3.4698326867	0.0000020138
6.30	3.4698318958	0.0000020831
6.35	3.4698310895	0.0000021547
6.40	3.4698302676	0.0000022289
6.45	3.4698294295	0.0000023056
6.50	3.4698285747	0.0000023850
6.55	3.4698277026	0.0000024673
6.60	3.4698268127	0.0000025526
6.65	3.4698259044	0.0000026410
6.70	3.4698249770	0.0000027326
6.75	3.4698240298	0.0000028277
6.80	3.4698230621	0.0000029264
6.85	3.4698220732	0.0000030289
6.90	3.4698210620	0.0000031354
6.95	3.4698200279	0.0000032461
7.00	3.4698189697	0.0000033613
7.05	3.4698178864	0.0000034812
7.10	3.4698167769	0.0000036061
7.15	3.4698156399	0.0000037363
7.20	3.4698144742	0.0000038722
7.25	3.4698132782	0.0000040141
7.30	3.4698120504	0.0000041625
7.35	3.4698107889	0.0000043178
7.40	3.4698094919	0.0000044806
7.45	3.4698081572	0.0000046513
7.50	3.4698067825	0.0000048308
7.55	3.4698053651	0.0000050197
7.60	3.4698039022	0.0000052189
7.65	3.4698023902	0.0000054294
7.70	3.4698008257	0.0000056522
7.75	3.4697992042	0.0000058887
7.80	3.4697975210	0.0000061405
7.85	3.4697957706	0.0000064093
7.90	3.4697939464	0.0000066973
7.95	3.4697920411	0.0000070071
8.00	3.4697900459	0.0000073420
8.05	3.4697879505	0.0000077059
8.10	3.4697857427	0.0000081035
8.15	3.4697834075	0.0000085413
8.20	3.4697809271	0.0000090270
8.25	3.4697782796	0.0000095710
8.30	3.4697754375	0.0000101870
8.35	3.4697723667	0.0000108935
8.40	3.4697690235	0.0000117161
8.45	3.4697653515	0.0000126909
8.50	3.4697612768	0.0000138701
8.55	3.4697567009	0.0000153321
8.60	3.4697514906	0.0000171979
8.65	3.4697454639	0.0000196623
8.70	3.4697383706	0.0000230533
8.75	3.4697298751	0.0000279524
8.80	3.4697195720	0.0000354505
8.85	3.4697071846	0.0000477133
8.90	3.4696936111	0.0000691576
8.95	3.4696855002	0.0001077024
9.00	3.4697080634	0.0001654780
9.05	3.4697861677	0.0001932427
9.10	3.4698485321	0.0001488247
9.15	3.4698576367	0.0000978777
9.20	3.4698470692	0.0000673350
9.25	3.4698339892	0.0000506394
9.30	3.4698222856	0.0000412744
9.35	3.4698123414	0.0000358314
9.40	3.4698038560	0.0000326175
9.45	3.4697964782	0.0000307585
9.50	3.4697899238	0.0000297786
9.55	3.4697839798	0.0000294057
9.60	3.4697784897	0.0000294782
9.65	3.4697733372	0.0000298978
9.70	3.4697684354	0.0000306035
9.75	3.4697637182	0.0000315588
9.80	3.4697591351	0.0000327426
9.85	3.4697546466	0.0000341450
9.90	3.4697502222	0.0000357641
9.95	3.4697458385	0.0000376045
10.00	3.4697414778	0.0000396760
10.05	3.4697371275	0.0000419931
10.10	3.4697327802	0.0000445745
10.15	3.4697284332	0.0000474432
10.20	3.4697240893	0.0000506260
10.25	3.4697197570	0.0000541537
10.30	3.4697154521	0.0000580611
10.35	3.4697111986	0.0000623862
10.40	3.4697070305	0.0000671701
10.45	3.4697029938	0.0000724556
10.50	3.4696991492	0.0000782857
10.55	3.4696955748	0.0000847010
10.60	3.4696923682	0.0000917354
10.65	3.4696896500	0.0000994108
10.70	3.4696875641	0.0001077293
10.75	3.4696862779	0.0001166634
10.80	3.4696859781	0.0001261441
10.85	3.4696868618	0.0001360479
10.90	3.4696891208	0.0001461848
10.95	3.4696929185	0.0001562900
11.00	3.4696983599	0.0001660248
11.05	3.4697054576	0.0001749908
11.10	3.4697141024	0.0001827605
11.15	3.4697240454	0.0001889244
11.20	3.4697349038	0.0001931468
11.25	3.4697461922	0.0001952181
11.30	3.4697573771	0.0001950888
11.35	3.4697679422	0.0001928759
11.40	3.4697774477	0.0001888383
11.45	3.4697855710	0.0001833325
11.50	3.4697921212	0.0001767584
11.55	3.4697970315	0.0001695108
11.60	3.4698003351	0.0001619447
11.65	3.4698021356	0.0001543546
11.70	3.4698025782	0.0001469693
11.75	3.4698018256	0.0001399547
11.80	3.4698000408	0.0001334232
11.85	3.4697973762	0.0001274439
11.90	3.4697939672	0.0001220543
11.95	3.4697899301	0.0001172692
12.00	3.4697853618	0.0001130885
12.05	3.4697803414	0.0001095039
12.10	3.4697749315	0.0001065032
12.15	3.4697691810	0.0001040735
12.20	3.4697631270	0.0001022047
12.25	3.4697567968	0.0001008906
12.30	3.4697502103	0.0001001311
12.35	3.4697433812	0.0000999335
12.40	3.4697363193	0.0001003135
12.45	3.4697290323	0.0001012973
12.50	3.4697215275	0.0001029226
12.55	3.4697138151	0.0001052408
12.60	3.4697059108	0.0001083186
12.65	3.4696978404	0.0001122408
12.70	3.4696896461	0.0001171118
12.75	3.4696813945	0.0001230581
12.80	3.4696731884	0.0001302283
12.85	3.4696651824	0.0001387913
12.90	3.4696576032	0.0001489285
12.95	3.4696507755	0.0001608165
13.00	3.4696451498	0.0001745943
13.05	3.4696413269	0.0001903058
13.10	3.4696400620	0.0002078119
13.15	3.4696422236	0.0002266706
13.20	3.4696486680	0.0002460091
13.25	3.4696600029	0.0002644493
13.30	3.4696762602	0.0002801848
13.35	3.4696966021	0.0002913016
13.40	3.4697192643	0.0002963093
13.45	3.4697418866	0.0002946601
13.50	3.4697621396	0.0002869472
13.55	3.4697783243	0.0002746558
13.60	3.4697896504	0.0002596383
13.65	3.4697961460	0.0002436155
13.70	3.4697983675	0.0002278962
13.75	3.4697970958	0.0002133188
13.80	3.4697931241	0.0002003259
13.85	3.4697871457	0.0001890812
13.90	3.4697797167	0.0001795771
13.95	3.4697712590	0.0001717140
14.00	3.4697620801	0.0001653525
14.05	3.4697523975	0.0001603436
14.10	3.4697423611	0.0001565463
14.15	3.4697320706	0.0001538343
14.20	3.4697215902	0.0001521001
14.25	3.4697109583	0.0001512541
14.30	3.4697001954	0.0001512246
14.35	3.4696893095	0.0001519554
14.40	3.4696782996	0.0001534048
14.45	3.4696671589	0.0001555437
14.50	3.4696558765	0.0001583548
14.55	3.4696444390	0.0001618308
14.60	3.4696328317	0.0001659746
14.65	3.4696210389	0.0001707980
14.70	3.4696090454	0.0001763218
14.75	3.4695968365	0.0001825753
14.80	3.4695843988	0.0001895971
14.85	3.4695717213	0.0001974346
14.90	3.4695587956	0.0002061448
14.95	3.4695456170	0.0002157949
15.00	3.4695321859	0.0002264628
15.05	3.4695185090	0.0002382383
15.10	3.4695046013	0.0002512234
15.15	3.4694904878	0.0002655341
15.20	3.4694762072	0.0002813007
15.25	3.4694618144	0.0002986691
15.30	3.4694473856	0.0003178015
15.35	3.4694330230	0.0003388762
15.40	3.4694188621	0.0003620880
15.45	3.4694050789	0.0003876460
15.50	3.4693918994	0.0004157708
15.55	3.4693796110	0.0004466889
15.60	3.4693685744	0.0004806241
15.65	3.4693592370	0.0005177836
15.70	3.4693521464	0.0005583389
15.75	3.4693479618	0.0006023982
15.80	3.4693474613	0.0006499703
15.85	3.4693515397	0.0007009178
15.90	3.4693611927	0.0007549014
15.95	3.4693774786	0.0008113178
16.00	3.4694014514	0.0008692387
16.05	3.4694340592	0.0009273644
16.10	3.4694760082	0.0009840100
16.15	3.4695276034	0.0010371455
16.20	3.4695885888	0.0010845096
16.25	3.4696580264	0.0011238022
16.30	3.4697342575	0.0011529407
16.35	3.4698149800	0.0011703350
16.40	3.4698974492	0.0011751217
16.45	3.4699787716	0.0011672926
16.50	3.4700562280	0.0011476843
16.55	3.4701275531	0.0011178314
16.60	3.4701911151	0.0010797292
16.65	3.4702459742	0.0010355670
16.70	3.4702918340	0.0009874898
16.75	3.4703289217	0.0009374242
16.80	3.4703578387	0.0008869789
16.85	3.4703794146	0.0008374106
16.90	3.4703945841	0.0007896380
16.95	3.4704042961	0.0007442833
17.00	3.4704094530	0.0007017260
17.05	3.4704108749	0.0006621576
17.10	3.4704092843	0.0006256307
17.15	3.4704053024	0.0005921006
17.20	3.4703994536	0.0005614577
17.25	3.4703921749	0.0005335526
17.30	3.4703838263	0.0005082141
17.35	3.4703747018	0.0004852620
17.40	3.4703650399	0.0004645160
17.45	3.4703550333	0.0004458008
17.50	3.4703448364	0.0004289506
17.55	3.4703345731	0.0004138101
17.60	3.4703243420	0.0004002356
17.65	3.4703142217	0.0003880955
17.70	3.4703042744	0.0003772695
17.75	3.4702945496	0.0003676482
17.80	3.4702850863	0.0003591324
17.85	3.4702759158	0.0003516321
17.90	3.4702670626	0.0003450656
17.95	3.4702585464	0.0003393587
18.00	3.4702503830	0.0003344438
18.05	3.4702425853	0.0003302594
18.10	3.4702351638	0.0003267490
18.15	3.4702281274	0.0003238604
18.20	3.4702214836	0.0003215456
18.25	3.4702152389	0.0003197597
18.30	3.4702093991	0.0003184605
18.35	3.4702039693	0.0003176083
18.40	3.4701989542	0.0003171652
18.45	3.4701943580	0.0003170948
18.50	3.4701901843	0.0003173620
18.55	3.4701864363	0.0003179327
18.60	3.4701831165	0.0003187732
18.65	3.4701802270	0.0003198506
18.70	3.4701777686	0.0003211322
18.75	3.4701757414	0.0003225854
18.80	3.4701741445	0.0003241779
18.85	3.4701729755	0.0003258776
18.90	3.4701722305	0.0003276523
18.95	3.4701719042	0.0003294702
19.00	3.4701719894	0.0003312995
19.05	3.4701724771	0.0003331091
19.10	3.4701733562	0.0003348684
19.15	3.4701746136	0.0003365474
19.20	3.4701762341	0.0003381173
19.25	3.4701782003	0.0003395504
19.30	3.4701804928	0.0003408206
19.35	3.4701830902	0.0003419033
19.40	3.4701859692	0.0003427761
19.45	3.4701891048	0.0003434188
19.50	3.4701924706	0.0003438135
19.55	3.4701960388	0.0003439451
19.60	3.4701997809	0.0003438010
19.65	3.4702036676	0.0003433717
19.70	3.4702076692	0.0003426504
19.75	3.4702117564	0.0003416335
19.80	3.4702158998	0.0003403200
19.85	3.4702200710	0.0003387119
19.90	3.4702242424	0.0003368137
19.95	3.4702283878	0.0003346324
20.00	3.4702324824	0.0003321775
