Material: main / PbI2 / Frisenda
Optical constants. R. Frisenda, J. O. Island, J. L. Lado, E. Giovanelli, P. Gant, P. Nagler, S. Bange, J. M. Lupton, C. Schüller, A. J. Molina-Mendoza, L. Aballe, M. Foerster, T. Korn, M. A. Niño, D. Perez de Lara, E. M. Pérez, J. Fernandéz-Rossier, A. Castellanos-Gomez. Characterization of highly crystalline lead iodide nanosheets prepared by room-temperature solution processing, Nanotechnol. 28, 455703 (2017) (Numerical data kindly provided by Andres Castellanos-Gomez)
Comments: Optical constants derived from reflectance spectra of 10-170 nm PbI2 films on SiO2/Si substrate.
Specs: {"n_absolute": true, "wavelength_vacuum": true, "substrate": "SiO2/Si"}
wavelength (um)	n	k
0.4234589	3.4144	1.6123
0.4245691	3.4177	1.5810
0.4256793	3.4218	1.5494
0.4267896	3.4269	1.5175
0.4278998	3.4332	1.4855
0.4290101	3.4409	1.4533
0.4301203	3.4500	1.4209
0.4312305	3.4608	1.3885
0.4323408	3.4734	1.3560
0.4334510	3.4878	1.3235
0.4345612	3.5040	1.2911
0.4356715	3.5221	1.2587
0.4367817	3.5418	1.2265
0.4378919	3.5630	1.1943
0.4390022	3.5854	1.1623
0.4401124	3.6086	1.1306
0.4412226	3.6322	1.0990
0.4423329	3.6555	1.0678
0.4434431	3.6782	1.0368
0.4445534	3.6996	1.0061
0.4456636	3.7192	0.9758
0.4467738	3.7365	0.9458
0.4478841	3.7512	0.9163
0.4489943	3.7628	0.8871
0.4501045	3.7713	0.8584
0.4512148	3.7767	0.8301
0.4523250	3.7789	0.8023
0.4534352	3.7784	0.7750
0.4545455	3.7753	0.7482
0.4556557	3.7701	0.7219
0.4567659	3.7634	0.6961
0.4578762	3.7557	0.6708
0.4589864	3.7475	0.6461
0.4600967	3.7394	0.6220
0.4612069	3.7318	0.5984
0.4623171	3.7252	0.5754
0.4634274	3.7198	0.5530
0.4645376	3.7160	0.5312
0.4656478	3.7138	0.5100
0.4667581	3.7134	0.4895
0.4678683	3.7146	0.4698
0.4689785	3.7175	0.4508
0.4700888	3.7219	0.4328
0.4711990	3.7275	0.4158
0.4723092	3.7343	0.4000
0.4734195	3.7420	0.3857
0.4745297	3.7504	0.3732
0.4756399	3.7593	0.3627
0.4767502	3.7684	0.3547
0.4778604	3.7776	0.3496
0.4789707	3.7868	0.3479
0.4800809	3.7956	0.3499
0.4811911	3.8041	0.3560
0.4823014	3.8121	0.3665
0.4834116	3.8195	0.3814
0.4845218	3.8261	0.4006
0.4856321	3.8320	0.4236
0.4867423	3.8371	0.4499
0.4878525	3.8413	0.4783
0.4889628	3.8445	0.5078
0.4900730	3.8468	0.5367
0.4911832	3.8480	0.5634
0.4922935	3.8483	0.5864
0.4934037	3.8475	0.6040
0.4945140	3.8457	0.6149
0.4956242	3.8429	0.6182
0.4967344	3.8394	0.6131
0.4978447	3.8359	0.5996
0.4989549	3.8344	0.5779
0.5000651	3.8390	0.5489
0.5011754	3.8566	0.5137
0.5022856	3.8950	0.4738
0.5033958	3.9567	0.4306
0.5045061	4.0325	0.3861
0.5056163	4.0988	0.3515
0.5067265	4.1272	0.4473
0.5078368	4.1009	0.6853
0.5089470	4.0261	0.4606
0.5100573	3.9276	0.2124
0.5111675	3.8333	0.1568
0.5122777	3.7601	0.1307
0.5133880	3.7107	0.1092
0.5144982	3.6788	0.0913
0.5156084	3.6570	0.0767
0.5167187	3.6397	0.0648
0.5178289	3.6241	0.0553
0.5189391	3.6090	0.0477
0.5200494	3.5941	0.0416
0.5211596	3.5794	0.0367
0.5222698	3.5649	0.0328
0.5233801	3.5505	0.0295
0.5244903	3.5364	0.0268
0.5256005	3.5226	0.0245
0.5267108	3.5090	0.0225
0.5278210	3.4959	0.0207
0.5289313	3.4831	0.0191
0.5300415	3.4707	0.0177
0.5311517	3.4587	0.0164
0.5322620	3.4471	0.0151
0.5333722	3.4360	0.0140
0.5344824	3.4253	0.0130
0.5355927	3.4151	0.0120
0.5367029	3.4053	0.0111
0.5378131	3.3959	0.0103
0.5389234	3.3870	0.0095
0.5400336	3.3785	0.0087
0.5411438	3.3705	0.0081
0.5422541	3.3628	0.0074
0.5433643	3.3556	0.0069
0.5444746	3.3488	0.0063
0.5455848	3.3423	0.0058
0.5466950	3.3362	0.0054
0.5478053	3.3304	0.0049
0.5489155	3.3250	0.0045
0.5500257	3.3198	0.0042
0.5511360	3.3150	0.0038
0.5522462	3.3104	0.0035
0.5533564	3.3061	0.0032
0.5544667	3.3020	0.0029
0.5555769	3.2981	0.0027
0.5566871	3.2945	0.0025
0.5577974	3.2910	0.0023
0.5589076	3.2877	0.0021
0.5600179	3.2846	0.0019
0.5611281	3.2816	0.0017
0.5622383	3.2787	0.0016
0.5633486	3.2760	0.0014
0.5644588	3.2733	0.0013
0.5655690	3.2708	0.0012
0.5666793	3.2684	0.0011
0.5677895	3.2660	0.0010
0.5688997	3.2637	0.0009
0.5700100	3.2615	0.0008
0.5711202	3.2593	0.0007
0.5722304	3.2572	0.0007
0.5733407	3.2551	0.0006
0.5744509	3.2531	0.0006
0.5755611	3.2510	0.0005
0.5766714	3.2490	0.0005
0.5777816	3.2471	0.0004
0.5788919	3.2451	0.0004
0.5800021	3.2432	0.0003
0.5811123	3.2412	0.0003
0.5822226	3.2393	0.0003
0.5833328	3.2374	0.0002
0.5844430	3.2355	0.0002
0.5855533	3.2336	0.0002
0.5866635	3.2317	0.0002
0.5877737	3.2298	0.0002
0.5888840	3.2279	0.0001
0.5899942	3.2260	0.0001
0.5911044	3.2241	0.0001
0.5922147	3.2222	0.0001
0.5933249	3.2203	0.0001
0.5944352	3.2183	0.0001
0.5955454	3.2164	0.0001
0.5966556	3.2145	0.0001
0.5977659	3.2125	0.0001
0.5988761	3.2106	0.0001
0.5999863	3.2086	0.0000
0.6010966	3.2067	0.0000
0.6022068	3.2047	0.0000
0.6033170	3.2027	0.0000
0.6044273	3.2007	0.0000
0.6055375	3.1987	0.0000
0.6066477	3.1967	0.0000
0.6077580	3.1947	0.0000
0.6088682	3.1927	0.0000
0.6099785	3.1907	0.0000
0.6110887	3.1887	0.0000
0.6121989	3.1866	0.0000
0.6133092	3.1846	0.0000
0.6144194	3.1825	0.0000
0.6155296	3.1804	0.0000
0.6166399	3.1784	0.0000
0.6177501	3.1763	0.0000
0.6188603	3.1742	0.0000
0.6199706	3.1721	0.0000
0.6210808	3.1700	0.0000
0.6221910	3.1678	0.0000
0.6233013	3.1657	0.0000
0.6244115	3.1636	0.0000
0.6255218	3.1614	0.0000
0.6266320	3.1593	0.0000
0.6277422	3.1571	0.0000
0.6288525	3.1550	0.0000
0.6299627	3.1528	0.0000
0.6310729	3.1506	0.0000
0.6321832	3.1484	0.0000
0.6332934	3.1462	0.0000
0.6344036	3.1440	0.0000
0.6355139	3.1418	0.0000
0.6366241	3.1395	0.0000
0.6377343	3.1373	0.0000
0.6388446	3.1351	0.0000
0.6399548	3.1328	0.0000
0.6410650	3.1306	0.0000
0.6421753	3.1283	0.0000
0.6432855	3.1260	0.0000
0.6443958	3.1237	0.0000
0.6455060	3.1214	0.0000
0.6466162	3.1191	0.0000
0.6477265	3.1168	0.0000
0.6488367	3.1145	0.0000
0.6499469	3.1122	0.0000
0.6510572	3.1099	0.0000
0.6521674	3.1075	0.0000
0.6532776	3.1052	0.0000
0.6543879	3.1028	0.0000
0.6554981	3.1005	0.0000
0.6566083	3.0981	0.0000
0.6577186	3.0957	0.0000
0.6588288	3.0933	0.0000
0.6599391	3.0909	0.0000
0.6610493	3.0885	0.0000
0.6621595	3.0861	0.0000
0.6632698	3.0837	0.0000
0.6643800	3.0813	0.0000
0.6654902	3.0789	0.0000
0.6666005	3.0764	0.0000
0.6677107	3.0740	0.0000
0.6688209	3.0715	0.0000
0.6699312	3.0691	0.0000
0.6710414	3.0666	0.0000
0.6721516	3.0641	0.0000
0.6732619	3.0616	0.0000
0.6743721	3.0591	0.0000
0.6754824	3.0566	0.0000
0.6765926	3.0541	0.0000
0.6777028	3.0516	0.0000
0.6788131	3.0491	0.0000
0.6799233	3.0466	0.0000
0.6810335	3.0440	0.0000
0.6821438	3.0415	0.0000
0.6832540	3.0389	0.0000
0.6843642	3.0364	0.0000
0.6854745	3.0338	0.0000
0.6865847	3.0312	0.0000
0.6876949	3.0287	0.0000
0.6888052	3.0261	0.0000
0.6899154	3.0235	0.0000
0.6910256	3.0209	0.0000
0.6921359	3.0183	0.0000
0.6932461	3.0157	0.0000
0.6943564	3.0130	0.0000
0.6954666	3.0104	0.0000
0.6965768	3.0078	0.0000
0.6976871	3.0051	0.0000
0.6987973	3.0025	0.0000
0.6999075	2.9998	0.0000
0.7010178	2.9972	0.0000
0.7021280	2.9945	0.0000
0.7032382	2.9918	0.0000
0.7043485	2.9891	0.0000
0.7054587	2.9864	0.0000
0.7065689	2.9837	0.0000
0.7076792	2.9810	0.0000
0.7087894	2.9783	0.0000
0.7098997	2.9756	0.0000
0.7110099	2.9729	0.0000
0.7121201	2.9702	0.0000
0.7132304	2.9674	0.0000
0.7143406	2.9647	0.0000
0.7154508	2.9619	0.0000
0.7165611	2.9592	0.0000
0.7176713	2.9564	0.0000
0.7187815	2.9536	0.0000
0.7198918	2.9508	0.0000
0.7210020	2.9481	0.0000
0.7221122	2.9453	0.0000
0.7232225	2.9425	0.0000
0.7243327	2.9397	0.0000
0.7254430	2.9369	0.0000
0.7265532	2.9340	0.0000
0.7276634	2.9312	0.0000
0.7287737	2.9284	0.0000
0.7298839	2.9256	0.0000
0.7309941	2.9227	0.0000
0.7321044	2.9199	0.0000
0.7332146	2.9170	0.0000
0.7343248	2.9142	0.0000
0.7354351	2.9113	0.0000
0.7365453	2.9084	0.0000
0.7376555	2.9055	0.0000
0.7387658	2.9026	0.0000
0.7398760	2.8998	0.0000
0.7409863	2.8969	0.0000
0.7420965	2.8940	0.0000
0.7432067	2.8910	0.0000
0.7443170	2.8881	0.0000
0.7454272	2.8852	0.0000
0.7465374	2.8823	0.0000
0.7476477	2.8793	0.0000
0.7487579	2.8764	0.0000
0.7498681	2.8735	0.0000
0.7509784	2.8705	0.0000
0.7520886	2.8676	0.0000
0.7531988	2.8646	0.0000
0.7543091	2.8616	0.0000
0.7554193	2.8586	0.0000
0.7565295	2.8557	0.0000
0.7576398	2.8527	0.0000
0.7587500	2.8497	0.0000
0.7598603	2.8467	0.0000
0.7609705	2.8437	0.0000
0.7620807	2.8407	0.0000
0.7631910	2.8377	0.0000
0.7643012	2.8346	0.0000
0.7654114	2.8316	0.0000
0.7665217	2.8286	0.0000
0.7676319	2.8256	0.0000
0.7687421	2.8225	0.0000
0.7698524	2.8195	0.0000
0.7709626	2.8164	0.0000
0.7720728	2.8134	0.0000
0.7731831	2.8103	0.0000
0.7742933	2.8072	0.0000
0.7754036	2.8042	0.0000
0.7765138	2.8011	0.0000
0.7776240	2.7980	0.0000
0.7787343	2.7949	0.0000
0.7798445	2.7918	0.0000
0.7809547	2.7887	0.0000
0.7820650	2.7856	0.0000
0.7831752	2.7825	0.0000
0.7842854	2.7794	0.0000
0.7853957	2.7762	0.0000
0.7865059	2.7731	0.0000
0.7876161	2.7700	0.0000
0.7887264	2.7669	0.0000
0.7898366	2.7637	0.0000
0.7909469	2.7606	0.0000
0.7920571	2.7574	0.0000
0.7931673	2.7543	0.0000
