Material: inorganic / WSe2 / Ermolaev
Optical constants. G.A. Ermolaev, D.I. Yakubovsky, Y.V. Stebunov, A.A. Voronov, A.V. Arsenin, V.S. Volkov. Spectroscopic ellipsometry of large area monolayer WS2 and WSe2 films, AIP Conf. Proc., 2359, 020005 (2021) (Numerical data kindly provided by Dr. Georgy Ermolaev)
Comments: CVD-grown monolayer.
Specs: {"n_absolute": true, "wavelength_vacuum": true, "film_thickness": "1L", "substrate": "SiO2/Si"}
wavelength (um)	n	k
0.301	1.606890	1.554520
0.305	1.619880	1.606800
0.309	1.633800	1.660930
0.313	1.648730	1.717240
0.317	1.664790	1.776160
0.321	1.682160	1.838180
0.325	1.701130	1.903940
0.329	1.722090	1.974250
0.333	1.745680	2.050100
0.337	1.772850	2.132760
0.341	1.805090	2.223810
0.345	1.844760	2.325220
0.349	1.895660	2.439260
0.353	1.964040	2.568240
0.357	2.060170	2.713390
0.361	2.200510	2.871670
0.365	2.408640	3.027820
0.369	2.706430	3.139010
0.373	3.076360	3.126870
0.377	3.411320	2.936400
0.381	3.584710	2.643410
0.385	3.598900	2.388040
0.389	3.541200	2.228710
0.393	3.477500	2.151560
0.397	3.435640	2.126780
0.401	3.422990	2.130370
0.405	3.439010	2.145900
0.409	3.480420	2.162070
0.413	3.542810	2.170550
0.417	3.620710	2.165020
0.421	3.707510	2.140940
0.425	3.795510	2.096130
0.429	3.876630	2.031360
0.433	3.943800	1.950520
0.437	3.992330	1.860000
0.441	4.020770	1.767130
0.445	4.030720	1.678590
0.449	4.025880	1.599230
0.453	4.010790	1.531750
0.457	3.989860	1.476960
0.461	3.966810	1.434380
0.465	3.944510	1.402750
0.469	3.925020	1.380510
0.473	3.909780	1.366070
0.477	3.899820	1.357920
0.481	3.895910	1.354700
0.485	3.898770	1.355120
0.489	3.909190	1.357860
0.493	3.928040	1.361320
0.497	3.956280	1.363320
0.501	3.994460	1.360660
0.505	4.041900	1.348970
0.509	4.095250	1.323320
0.513	4.147630	1.280550
0.517	4.190280	1.222420
0.521	4.217210	1.156240
0.525	4.228620	1.090980
0.529	4.229530	1.032340
0.533	4.225800	0.981430
0.537	4.221270	0.936450
0.541	4.217670	0.895050
0.545	4.215390	0.855110
0.549	4.214030	0.815090
0.553	4.212860	0.774000
0.557	4.211040	0.731280
0.561	4.207820	0.686690
0.565	4.202360	0.639850
0.569	4.193430	0.591040
0.573	4.180220	0.540900
0.577	4.162130	0.490150
0.581	4.138690	0.439640
0.585	4.109620	0.390290
0.589	4.074780	0.343110
0.593	4.034240	0.299200
0.597	3.988290	0.259670
0.601	3.937470	0.225660
0.605	3.882610	0.198270
0.609	3.824800	0.178500
0.613	3.765540	0.167260
0.617	3.706810	0.165280
0.621	3.651770	0.172990
0.625	3.605200	0.186080
0.629	3.563660	0.200040
0.633	3.525350	0.215010
0.637	3.489510	0.231120
0.641	3.455700	0.248480
0.645	3.423670	0.267190
0.649	3.393250	0.287370
0.653	3.364390	0.309130
0.657	3.337050	0.332590
0.661	3.311300	0.357870
0.665	3.287230	0.385060
0.669	3.264980	0.414260
0.673	3.244750	0.445540
0.677	3.226780	0.478950
0.681	3.211380	0.514490
0.685	3.198870	0.552120
0.689	3.189620	0.591730
0.693	3.184030	0.633140
0.697	3.182500	0.676080
0.701	3.185440	0.720180
0.705	3.193200	0.764970
0.709	3.206110	0.809890
0.713	3.224390	0.854240
0.717	3.248140	0.897290
0.721	3.277340	0.938230
0.725	3.311800	0.976200
0.729	3.351170	1.010400
0.733	3.394930	1.040060
0.737	3.442380	1.064480
0.741	3.492720	1.083140
0.745	3.545010	1.095650
0.749	3.598290	1.101830
0.753	3.651540	1.101680
0.757	3.703830	1.095420
0.761	3.754260	1.083420
0.765	3.802080	1.066210
0.769	3.846660	1.044420
0.773	3.887550	1.018760
0.777	3.924450	0.989980
0.781	3.957210	0.958790
0.785	3.985790	0.925890
0.789	4.010310	0.891910
0.793	4.030920	0.857390
0.797	4.047880	0.822830
0.801	4.061460	0.788600
0.805	4.071980	0.755020
0.809	4.079730	0.722340
0.813	4.085030	0.690740
0.817	4.088160	0.660340
0.821	4.089410	0.631230
0.825	4.089030	0.603440
0.829	4.087250	0.577000
0.833	4.084270	0.551900
0.837	4.080280	0.528110
0.841	4.075440	0.505590
0.845	4.069900	0.484300
0.849	4.063780	0.464180
0.853	4.057190	0.445190
0.857	4.050220	0.427250
0.861	4.042960	0.410330
0.865	4.035460	0.394340
0.869	4.027800	0.379250
0.873	4.020020	0.365000
0.877	4.012160	0.351540
0.881	4.004270	0.338810
0.885	3.996370	0.326770
0.889	3.988480	0.315380
0.893	3.980640	0.304590
0.897	3.972850	0.294380
0.901	3.965130	0.284690
0.905	3.957500	0.275500
0.909	3.949970	0.266780
0.913	3.942530	0.258500
0.917	3.935210	0.250620
0.921	3.927990	0.243130
0.925	3.920900	0.236000
0.929	3.913920	0.229210
0.933	3.907070	0.222740
0.937	3.900340	0.216560
0.941	3.893730	0.210670
0.945	3.887250	0.205040
0.949	3.880880	0.199660
0.953	3.874640	0.194520
0.957	3.868520	0.189600
0.961	3.862520	0.184890
0.965	3.856640	0.180370
0.969	3.850870	0.176040
0.973	3.845220	0.171890
0.977	3.839670	0.167910
0.981	3.834240	0.164080
0.985	3.828910	0.160410
0.989	3.823690	0.156870
0.993	3.818570	0.153470
0.997	3.813560	0.150200
1.001	3.808640	0.147050
1.005	3.803810	0.144020
1.009	3.799080	0.141090
1.013	3.794450	0.138270
1.017	3.789900	0.135550
1.021	3.785440	0.132920
1.025	3.781060	0.130380
1.029	3.776770	0.127930
1.033	3.772560	0.125570
1.037	3.768430	0.123280
1.041	3.764370	0.121060
1.045	3.760400	0.118920
1.049	3.756490	0.116840
1.053	3.752660	0.114830
1.057	3.748890	0.112880
1.061	3.745200	0.110990
1.065	3.741570	0.109160
1.069	3.738010	0.107390
1.073	3.734510	0.105670
1.077	3.731070	0.103990
1.081	3.727690	0.102370
1.085	3.724370	0.100790
1.089	3.721110	0.099260
1.093	3.717910	0.097770
1.097	3.714760	0.096320
1.101	3.711660	0.094920
1.105	3.708620	0.093550
1.109	3.705630	0.092210
1.113	3.702690	0.090910
1.117	3.699790	0.089650
1.121	3.696950	0.088420
1.125	3.694150	0.087220
1.129	3.691390	0.086050
1.133	3.688680	0.084910
1.137	3.686020	0.083800
1.141	3.683390	0.082720
1.145	3.680810	0.081660
1.149	3.678270	0.080630
1.153	3.675770	0.079620
1.157	3.673300	0.078640
1.161	3.670880	0.077680
1.165	3.668490	0.076750
1.169	3.666140	0.075830
1.173	3.663820	0.074940
1.177	3.661540	0.074060
1.181	3.659300	0.073210
1.185	3.657080	0.072370
1.189	3.654900	0.071550
1.193	3.652750	0.070750
1.197	3.650640	0.069970
1.201	3.648550	0.069210
1.205	3.646490	0.068460
1.209	3.644470	0.067720
1.213	3.642470	0.067000
1.217	3.640500	0.066300
1.221	3.638550	0.065610
1.225	3.636640	0.064940
1.229	3.634750	0.064270
1.233	3.632890	0.063630
1.237	3.631050	0.062990
1.241	3.629240	0.062370
1.245	3.627450	0.061760
1.249	3.625690	0.061160
1.253	3.623950	0.060570
1.257	3.622230	0.059990
1.261	3.620540	0.059430
1.265	3.618870	0.058870
1.269	3.617220	0.058330
1.273	3.615590	0.057790
1.277	3.613980	0.057270
1.281	3.612400	0.056750
1.285	3.610830	0.056240
1.289	3.609290	0.055750
1.293	3.607760	0.055260
1.297	3.606250	0.054780
1.301	3.604770	0.054310
1.305	3.603300	0.053840
1.309	3.601850	0.053390
1.313	3.600410	0.052940
1.317	3.599000	0.052500
1.321	3.597600	0.052060
1.325	3.596220	0.051640
1.329	3.594860	0.051220
1.333	3.593510	0.050810
1.337	3.592180	0.050400
1.341	3.590860	0.050000
1.345	3.589560	0.049610
1.349	3.588280	0.049220
1.353	3.587010	0.048840
1.357	3.585750	0.048470
1.361	3.584510	0.048100
1.365	3.583290	0.047740
1.369	3.582080	0.047380
1.373	3.580880	0.047030
1.377	3.579690	0.046680
1.381	3.578520	0.046340
1.385	3.577370	0.046000
1.389	3.576220	0.045670
1.393	3.575090	0.045350
1.397	3.573970	0.045030
1.401	3.572870	0.044710
1.405	3.571770	0.044400
1.409	3.570690	0.044090
1.413	3.569620	0.043780
1.417	3.568560	0.043490
1.421	3.567520	0.043190
1.425	3.566480	0.042900
1.429	3.565460	0.042610
1.433	3.564440	0.042330
1.437	3.563440	0.042050
1.441	3.562450	0.041780
1.445	3.561470	0.041500
1.449	3.560500	0.041240
1.453	3.559540	0.040970
1.457	3.558590	0.040710
1.461	3.557650	0.040450
1.465	3.556710	0.040200
1.469	3.555790	0.039950
1.473	3.554880	0.039700
1.477	3.553980	0.039460
1.481	3.553080	0.039220
1.485	3.552200	0.038980
1.489	3.551320	0.038740
1.493	3.550460	0.038510
1.497	3.549600	0.038280
1.501	3.548750	0.038050
1.505	3.547910	0.037830
1.509	3.547080	0.037610
1.513	3.546250	0.037390
1.517	3.545440	0.037180
1.521	3.544630	0.036960
1.525	3.543830	0.036750
1.529	3.543030	0.036540
1.533	3.542250	0.036340
1.537	3.541470	0.036140
1.541	3.540700	0.035930
1.545	3.539940	0.035740
1.549	3.539180	0.035540
1.553	3.538440	0.035350
1.557	3.537690	0.035150
1.561	3.536960	0.034960
1.565	3.536230	0.034780
1.569	3.535510	0.034590
1.573	3.534800	0.034410
1.577	3.534090	0.034230
1.581	3.533390	0.034050
1.585	3.532700	0.033870
1.589	3.532010	0.033700
1.593	3.531330	0.033520
1.597	3.530650	0.033350
1.601	3.529980	0.033180
1.605	3.529320	0.033010
1.609	3.528660	0.032850
1.613	3.528010	0.032680
1.617	3.527370	0.032520
1.621	3.526730	0.032360
1.625	3.526090	0.032200
1.629	3.525470	0.032050
1.633	3.524840	0.031890
1.637	3.524230	0.031740
1.641	3.523610	0.031580
1.645	3.523010	0.031430
1.649	3.522410	0.031280
1.653	3.521810	0.031130
1.657	3.521220	0.030990
1.661	3.520630	0.030840
1.665	3.520050	0.030700
1.669	3.519480	0.030560
1.673	3.518910	0.030420
1.677	3.518340	0.030280
1.681	3.517780	0.030140
1.685	3.517220	0.030000
1.689	3.516670	0.029870
1.693	3.516120	0.029730
1.697	3.515580	0.029600
