Material: inorganic / WSe2 / Gu-1L
Optical constants. H. Gu, B. Song, M. Fang, Y. Hong, X. Chen, H. Jiang, W. Ren, and S. Liu, Layer-dependent dielectric and optical properties of centimeter-scale 2D WSe2: evolution from a single layer to few layers. Nanoscale 11, 22762-22771 (2019) (Numerical data kindly provided by Baokun Song)
Comments: Monolayer (1-layer, 1L)
Specs: {"n_absolute": true, "wavelength_vacuum": true, "film_thickness": "1L", "substrate": "sapphire"}
wavelength (um)	n	k
0.1930	0.474954	3.168606
0.1960	0.529625	3.198016
0.1990	0.588908	3.223859
0.2020	0.651774	3.244501
0.2050	0.716463	3.258551
0.2080	0.780515	3.265257
0.2110	0.841045	3.264935
0.2140	0.895302	3.259231
0.2170	0.941382	3.251017
0.2200	0.978812	3.243872
0.2230	1.008749	3.241283
0.2260	1.033709	3.245899
0.2290	1.056984	3.259073
0.2320	1.082001	3.280788
0.2350	1.111821	3.309844
0.2380	1.148836	3.344157
0.2410	1.194625	3.381049
0.2440	1.249870	3.417487
0.2470	1.314282	3.450300
0.2500	1.386525	3.476448
0.2530	1.464185	3.493376
0.2560	1.543888	3.499475
0.2590	1.621674	3.494542
0.2620	1.693658	3.480073
0.2650	1.756846	3.459179
0.2680	1.809870	3.436051
0.2710	1.853358	3.415090
0.2740	1.889809	3.399974
0.2770	1.923065	3.392920
0.2800	1.957551	3.394316
0.2830	1.997517	3.402686
0.2860	2.046389	3.414904
0.2890	2.106237	3.426560
0.2920	2.177349	3.432438
0.2950	2.257888	3.427133
0.2980	2.343718	3.405892
0.3010	2.428581	3.365648
0.3040	2.504837	3.306054
0.3070	2.564809	3.230133
0.3100	2.602446	3.144114
0.3130	2.614702	3.056360
0.3160	2.602139	2.975724
0.3190	2.568583	2.909951
0.3220	2.520164	2.864589
0.3250	2.464150	2.842535
0.3280	2.407901	2.844094
0.3310	2.358059	2.867336
0.3340	2.319999	2.908629
0.3370	2.297532	2.963227
0.3400	2.292816	3.025821
0.3430	2.306425	3.091017
0.3460	2.337488	3.153686
0.3490	2.383838	3.209252
0.3520	2.442163	3.253965
0.3550	2.508201	3.285192
0.3580	2.577043	3.301720
0.3610	2.643594	3.303981
0.3640	2.703158	3.294110
0.3670	2.752049	3.275737
0.3700	2.788077	3.253523
0.3730	2.810803	3.232541
0.3760	2.821507	3.217623
0.3790	2.822918	3.212831
0.3820	2.818816	3.221098
0.3850	2.813593	3.244054
0.3880	2.811833	3.282007
0.3910	2.817972	3.334031
0.3940	2.836025	3.398116
0.3970	2.869395	3.471342
0.4000	2.920750	3.550060
0.4030	2.991918	3.630036
0.4060	3.083806	3.706581
0.4090	3.196271	3.774683
0.4120	3.327972	3.829187
0.4150	3.476206	3.865062
0.4180	3.636805	3.877815
0.4210	3.804183	3.864011
0.4240	3.971639	3.821844
0.4270	4.131943	3.751591
0.4300	4.278144	3.655786
0.4330	4.404429	3.539000
0.4360	4.506789	3.407237
0.4390	4.583328	3.267120
0.4420	4.634181	3.125080
0.4450	4.661116	2.986741
0.4480	4.667005	2.856590
0.4510	4.655313	2.737901
0.4540	4.629694	2.632843
0.4570	4.593720	2.542669
0.4600	4.550742	2.467904
0.4630	4.503809	2.408575
0.4660	4.455743	2.364327
0.4690	4.409152	2.334480
0.4720	4.366467	2.318061
0.4750	4.329962	2.313790
0.4780	4.301734	2.320049
0.4810	4.283654	2.334840
0.4840	4.277262	2.355770
0.4870	4.283643	2.380064
0.4900	4.303280	2.404644
0.4930	4.335920	2.426268
0.4960	4.380485	2.441744
0.4990	4.435054	2.448177
0.5020	4.496947	2.443250
0.5050	4.562922	2.425466
0.5080	4.629455	2.394303
0.5110	4.693081	2.350263
0.5140	4.750728	2.294775
0.5170	4.799968	2.229980
0.5200	4.839171	2.158449
0.5230	4.867527	2.082892
0.5260	4.884957	2.005903
0.5290	4.891973	1.929784
0.5320	4.889498	1.856455
0.5350	4.878706	1.787430
0.5380	4.860894	1.723842
0.5410	4.837385	1.666501
0.5440	4.809482	1.615959
0.5470	4.778438	1.572572
0.5500	4.745466	1.536542
0.5530	4.711757	1.507961
0.5560	4.678504	1.486809
0.5590	4.646938	1.472954
0.5620	4.618350	1.466111
0.5650	4.594100	1.465785
0.5680	4.575595	1.471192
0.5710	4.564222	1.481174
0.5740	4.561224	1.494119
0.5770	4.567515	1.507939
0.5800	4.583458	1.520123
0.5830	4.608632	1.527921
0.5860	4.641691	1.528654
0.5890	4.680376	1.520107
0.5920	4.721723	1.500912
0.5950	4.762470	1.470802
0.5980	4.799531	1.430628
0.6010	4.830429	1.382158
0.6040	4.853546	1.327704
0.6070	4.868177	1.269718
0.6100	4.874396	1.210463
0.6130	4.872840	1.151803
0.6160	4.864473	1.095129
0.6190	4.850386	1.041376
0.6220	4.831656	0.991095
0.6250	4.809269	0.944539
0.6280	4.784070	0.901753
0.6310	4.756760	0.862642
0.6340	4.727899	0.827030
0.6370	4.697921	0.794698
0.6400	4.667160	0.765412
0.6430	4.635855	0.738940
0.6460	4.604179	0.715065
0.6490	4.572243	0.693590
0.6520	4.540114	0.674344
0.6550	4.507820	0.657181
0.6580	4.475355	0.641981
0.6610	4.442691	0.628653
0.6640	4.409774	0.617135
0.6670	4.376530	0.607392
0.6700	4.342867	0.599424
0.6730	4.308674	0.593261
0.6760	4.273821	0.588977
0.6790	4.238160	0.586686
0.6820	4.201522	0.586559
0.6850	4.163722	0.588834
0.6880	4.124551	0.593830
0.6910	4.083787	0.601972
0.6940	4.041196	0.613827
0.6970	3.996546	0.630139
0.7000	3.949631	0.651897
0.7030	3.900326	0.680410
0.7060	3.848667	0.717417
0.7090	3.795022	0.765216
0.7120	3.740367	0.826820
0.7150	3.686789	0.906064
0.7180	3.638290	1.007556
0.7210	3.601986	1.136144
0.7240	3.589549	1.295332
0.7270	3.618060	1.483970
0.7300	3.708468	1.691139
0.7330	3.879332	1.891119
0.7360	4.135101	2.042954
0.7390	4.452759	2.100832
0.7420	4.778969	2.037657
0.7450	5.051845	1.867087
0.7480	5.236224	1.636665
0.7510	5.338118	1.392005
0.7540	5.348609	1.130604
0.7570	5.298623	0.963596
0.7600	5.244433	0.826879
0.7630	5.184333	0.717987
0.7660	5.123226	0.631493
0.7690	5.063987	0.562412
0.7720	5.008005	0.506730
0.7750	4.955804	0.461362
0.7780	4.907449	0.423980
0.7810	4.862774	0.392836
0.7840	4.821515	0.366611
0.7870	4.783369	0.344305
0.7900	4.748037	0.325151
0.7930	4.715237	0.308559
0.7960	4.684712	0.294067
0.7990	4.656229	0.281313
0.8020	4.629585	0.270009
0.8050	4.604596	0.259923
0.8080	4.581103	0.250870
0.8110	4.558965	0.242696
0.8140	4.538057	0.235279
0.8170	4.518270	0.228514
0.8200	4.499505	0.222317
0.8230	4.481677	0.216615
0.8260	4.464710	0.211348
0.8290	4.448534	0.206465
0.8320	4.433090	0.201922
0.8350	4.418322	0.197682
0.8380	4.404181	0.193712
0.8410	4.390624	0.189985
0.8440	4.377610	0.186478
0.8470	4.365103	0.183168
0.8500	4.353071	0.180037
0.8530	4.341483	0.177070
0.8560	4.330313	0.174252
0.8590	4.319536	0.171570
0.8620	4.309129	0.169013
0.8650	4.299071	0.166571
0.8680	4.289343	0.164236
0.8710	4.279928	0.161999
0.8740	4.270810	0.159853
0.8770	4.261972	0.157792
0.8800	4.253402	0.155809
0.8830	4.245086	0.153900
0.8860	4.237012	0.152060
0.8890	4.229169	0.150284
0.8920	4.221548	0.148568
0.8950	4.214137	0.146908
0.8980	4.206928	0.145303
0.9010	4.199912	0.143747
0.9040	4.193082	0.142239
0.9070	4.186430	0.140775
0.9100	4.179948	0.139354
0.9130	4.173631	0.137973
0.9160	4.167471	0.136631
0.9190	4.161464	0.135324
0.9220	4.155603	0.134052
0.9250	4.149884	0.132813
0.9280	4.144300	0.131605
0.9310	4.138848	0.130427
0.9340	4.133523	0.129278
0.9370	4.128322	0.128156
0.9400	4.123239	0.127060
0.9430	4.118270	0.125989
0.9460	4.113413	0.124942
0.9490	4.108665	0.123918
0.9520	4.104020	0.122916
0.9550	4.099476	0.121936
0.9580	4.095032	0.120975
0.9610	4.090683	0.120035
0.9640	4.086426	0.119113
0.9670	4.082259	0.118210
0.9700	4.078180	0.117324
0.9730	4.074186	0.116455
0.9760	4.070275	0.115603
0.9790	4.066445	0.114766
0.9820	4.062693	0.113945
0.9850	4.059018	0.113139
0.9880	4.055417	0.112347
0.9910	4.051888	0.111569
0.9940	4.048431	0.110804
0.9970	4.045043	0.110052
1.0000	4.041721	0.109313
1.0075	4.033703	0.107518
1.0150	4.026072	0.105795
1.0225	4.018806	0.104138
1.0300	4.011885	0.102542
1.0375	4.005291	0.101005
1.0450	3.999008	0.099521
1.0525	3.993020	0.098089
1.0600	3.987312	0.096705
1.0675	3.981870	0.095365
1.0750	3.976683	0.094069
1.0825	3.971739	0.092813
1.0900	3.967026	0.091595
1.0975	3.962536	0.090413
1.1050	3.958258	0.089266
1.1125	3.954183	0.088151
1.1200	3.950304	0.087068
1.1275	3.946612	0.086014
1.1350	3.943099	0.084988
1.1425	3.939761	0.083989
1.1500	3.936588	0.083016
1.1575	3.933576	0.082068
1.1650	3.930719	0.081144
1.1725	3.928011	0.080242
1.1800	3.925447	0.079361
1.1875	3.923021	0.078502
1.1950	3.920730	0.077662
1.2025	3.918569	0.076842
1.2100	3.916533	0.076040
1.2175	3.914618	0.075257
1.2250	3.912822	0.074490
1.2325	3.911139	0.073739
1.2400	3.909567	0.073005
1.2475	3.908102	0.072286
1.2550	3.906741	0.071582
1.2625	3.905481	0.070892
1.2700	3.904319	0.070216
1.2775	3.903252	0.069553
1.2850	3.902278	0.068903
1.2925	3.901394	0.068266
1.3000	3.900598	0.067641
1.3075	3.899887	0.067027
1.3150	3.899260	0.066425
1.3225	3.898713	0.065834
1.3300	3.898245	0.065254
1.3375	3.897854	0.064684
1.3450	3.897537	0.064124
1.3525	3.897295	0.063574
1.3600	3.897123	0.063033
1.3675	3.897021	0.062501
1.3750	3.896987	0.061979
1.3825	3.897020	0.061465
1.3900	3.897117	0.060960
1.3975	3.897278	0.060463
1.4050	3.897501	0.059974
1.4125	3.897785	0.059492
1.4200	3.898128	0.059019
1.4275	3.898530	0.058553
1.4350	3.898988	0.058094
1.4425	3.899502	0.057642
1.4500	3.900070	0.057196
1.4575	3.900692	0.056758
1.4650	3.901366	0.056326
1.4725	3.902092	0.055900
1.4800	3.902868	0.055481
1.4875	3.903693	0.055068
1.4950	3.904567	0.054660
1.5025	3.905488	0.054259
1.5100	3.906456	0.053863
1.5175	3.907469	0.053473
1.5250	3.908528	0.053087
1.5325	3.909630	0.052708
1.5400	3.910776	0.052333
1.5475	3.911965	0.051964
1.5550	3.913195	0.051599
1.5625	3.914467	0.051239
1.5700	3.915778	0.050884
1.5775	3.917130	0.050534
1.5850	3.918521	0.050188
1.5925	3.919950	0.049846
1.6000	3.921417	0.049509
1.6075	3.922921	0.049176
1.6150	3.924462	0.048847
1.6225	3.926039	0.048522
1.6300	3.927652	0.048202
1.6375	3.929299	0.047885
1.6450	3.930981	0.047572
1.6525	3.932697	0.047263
1.6600	3.934446	0.046957
1.6675	3.936228	0.046655
1.6750	3.938043	0.046357
1.6825	3.939890	0.046062
1.6900	3.941768	0.045771
