Material: inorganic / WSe2 / Gu-2L
Optical constants. H. Gu, B. Song, M. Fang, Y. Hong, X. Chen, H. Jiang, W. Ren, and S. Liu, Layer-dependent dielectric and optical properties of centimeter-scale 2D WSe2: evolution from a single layer to few layers. Nanoscale 11, 22762-22771 (2019) (Numerical data kindly provided by Baokun Song)
Comments: 2-layer, 2L
Specs: {"n_absolute": true, "wavelength_vacuum": true, "film_thickness": "2L", "substrate": "sapphire"}
wavelength (um)	n	k
0.1930	1.371714	2.130589
0.1960	1.380813	2.284654
0.1990	1.432151	2.355303
0.2020	1.493064	2.391354
0.2050	1.553624	2.407692
0.2080	1.609123	2.411592
0.2110	1.657047	2.408079
0.2140	1.696330	2.401327
0.2170	1.727102	2.394972
0.2200	1.750505	2.392078
0.2230	1.768497	2.395006
0.2260	1.783620	2.405287
0.2290	1.798754	2.423526
0.2320	1.816846	2.449349
0.2350	1.840631	2.481394
0.2380	1.872312	2.517372
0.2410	1.913230	2.554215
0.2440	1.963525	2.588376
0.2470	2.021886	2.616317
0.2500	2.085522	2.635186
0.2530	2.150516	2.643550
0.2560	2.212619	2.641913
0.2590	2.268304	2.632711
0.2620	2.315683	2.619684
0.2650	2.354890	2.606823
0.2680	2.387821	2.597355
0.2710	2.417428	2.593094
0.2740	2.446898	2.594286
0.2770	2.478986	2.599833
0.2800	2.515594	2.607709
0.2830	2.557591	2.615418
0.2860	2.604816	2.620413
0.2890	2.656190	2.620439
0.2920	2.709917	2.613791
0.2950	2.763722	2.599495
0.2980	2.815132	2.577396
0.3010	2.861752	2.548153
0.3040	2.901521	2.513147
0.3070	2.932909	2.474308
0.3100	2.955026	2.433906
0.3130	2.967662	2.394328
0.3160	2.971241	2.357886
0.3190	2.966745	2.326667
0.3220	2.955603	2.302430
0.3250	2.939595	2.286542
0.3280	2.920758	2.279937
0.3310	2.901304	2.283078
0.3340	2.883541	2.295931
0.3370	2.869782	2.317917
0.3400	2.862224	2.347885
0.3430	2.862801	2.384096
0.3460	2.873004	2.424255
0.3490	2.893682	2.465602
0.3520	2.924857	2.505089
0.3550	2.965583	2.539646
0.3580	3.013900	2.566531
0.3610	3.066933	2.583709
0.3640	3.121163	2.590209
0.3670	3.172859	2.586355
0.3700	3.218597	2.573788
0.3730	3.255743	2.555260
0.3760	3.282798	2.534234
0.3790	3.299523	2.514410
0.3820	3.306868	2.499279
0.3850	3.306760	2.491795
0.3880	3.301832	2.494172
0.3910	3.295164	2.507797
0.3940	3.290061	2.533216
0.3970	3.289867	2.570145
0.4000	3.297807	2.617506
0.4030	3.316844	2.673459
0.4060	3.349532	2.735448
0.4090	3.397861	2.800265
0.4120	3.463097	2.864138
0.4150	3.545608	2.922858
0.4180	3.644691	2.971974
0.4210	3.758423	3.007069
0.4240	3.883576	3.024130
0.4270	4.015682	3.020009
0.4300	4.149281	2.992890
0.4330	4.278416	2.942673
0.4360	4.397285	2.871120
0.4390	4.500937	2.781696
0.4420	4.585831	2.679106
0.4450	4.650116	2.568647
0.4480	4.693595	2.455555
0.4510	4.717437	2.344488
0.4540	4.723761	2.239228
0.4570	4.715223	2.142598
0.4600	4.694674	2.056528
0.4630	4.664930	1.982203
0.4660	4.628647	1.920232
0.4690	4.588273	1.870806
0.4720	4.546061	1.833808
0.4750	4.504102	1.808893
0.4780	4.464375	1.795511
0.4810	4.428781	1.792906
0.4840	4.399154	1.800074
0.4870	4.377251	1.815713
0.4900	4.364686	1.838164
0.4930	4.362831	1.865373
0.4960	4.372675	1.894896
0.4990	4.394665	1.923957
0.5020	4.428550	1.949591
0.5050	4.473285	1.968855
0.5080	4.527003	1.979098
0.5110	4.587111	1.978242
0.5140	4.650494	1.965027
0.5170	4.713828	1.939156
0.5200	4.773913	1.901307
0.5230	4.827998	1.853004
0.5260	4.874003	1.796383
0.5290	4.910633	1.733899
0.5320	4.937350	1.668046
0.5350	4.954269	1.601138
0.5380	4.961996	1.535169
0.5410	4.961462	1.471754
0.5440	4.953772	1.412125
0.5470	4.940098	1.357180
0.5500	4.921607	1.307539
0.5530	4.899417	1.263610
0.5560	4.874601	1.225645
0.5590	4.848184	1.193783
0.5620	4.821181	1.168072
0.5650	4.794623	1.148472
0.5680	4.769592	1.134838
0.5710	4.747245	1.126862
0.5740	4.728812	1.124006
0.5770	4.715548	1.125396
0.5800	4.708625	1.129734
0.5830	4.708943	1.135234
0.5860	4.716873	1.139668
0.5890	4.731996	1.140564
0.5920	4.752942	1.135567
0.5950	4.777446	1.122909
0.5980	4.802678	1.101811
0.6010	4.825768	1.072653
0.6040	4.844335	1.036836
0.6070	4.856842	0.996385
0.6100	4.862672	0.953491
0.6130	4.861984	0.910132
0.6160	4.855455	0.867862
0.6190	4.844019	0.827754
0.6220	4.828672	0.790452
0.6250	4.810342	0.756265
0.6280	4.789828	0.725264
0.6310	4.767787	0.697371
0.6340	4.744735	0.672421
0.6370	4.721067	0.650209
0.6400	4.697078	0.630518
0.6430	4.672983	0.613137
0.6460	4.648935	0.597872
0.6490	4.625040	0.584549
0.6520	4.601369	0.573018
0.6550	4.577969	0.563151
0.6580	4.554864	0.554844
0.6610	4.532071	0.548016
0.6640	4.509595	0.542604
0.6670	4.487443	0.538565
0.6700	4.465625	0.535876
0.6730	4.444162	0.534531
0.6760	4.423107	0.534539
0.6790	4.402587	0.535922
0.6820	4.382976	0.538692
0.6850	4.366570	0.541009
0.6880	4.345003	0.540559
0.6910	4.321235	0.544484
0.6940	4.297167	0.551994
0.6970	4.273341	0.562757
0.7000	4.250004	0.576692
0.7030	4.227334	0.593889
0.7060	4.205528	0.614577
0.7090	4.184862	0.639096
0.7120	4.165740	0.667885
0.7150	4.148754	0.701460
0.7180	4.134745	0.740383
0.7210	4.124898	0.785209
0.7240	4.120835	0.836386
0.7270	4.124719	0.894078
0.7300	4.139321	0.957887
0.7330	4.167983	1.026447
0.7360	4.214349	1.096893
0.7390	4.281726	1.164320
0.7420	4.371910	1.221511
0.7450	4.483596	1.259394
0.7480	4.610886	1.268725
0.7510	4.742978	1.242994
0.7540	4.866092	1.181464
0.7570	4.967425	1.090379
0.7600	5.039114	0.981073
0.7630	5.079798	0.866026
0.7660	5.093311	0.755333
0.7690	5.086005	0.655203
0.7720	5.064435	0.568277
0.7750	5.034107	0.494755
0.7780	4.999129	0.433516
0.7810	4.962341	0.382906
0.7840	4.925656	0.341193
0.7870	4.890575	0.306767
0.7900	4.857835	0.275628
0.7930	4.824080	0.249127
0.7960	4.791534	0.227390
0.7990	4.760674	0.209440
0.8020	4.731621	0.194523
0.8050	4.704360	0.182049
0.8080	4.678810	0.171554
0.8110	4.654865	0.162673
0.8140	4.632410	0.155114
0.8170	4.611327	0.148645
0.8200	4.591504	0.143078
0.8230	4.572836	0.138264
0.8260	4.555227	0.134080
0.8290	4.538589	0.130426
0.8320	4.522841	0.127221
0.8350	4.507911	0.124397
0.8380	4.493734	0.121899
0.8410	4.480251	0.119679
0.8440	4.467411	0.117699
0.8470	4.455163	0.115926
0.8500	4.443467	0.114333
0.8530	4.432282	0.112895
0.8560	4.421576	0.111594
0.8590	4.411314	0.110412
0.8620	4.401471	0.109335
0.8650	4.392020	0.108349
0.8680	4.382938	0.107444
0.8710	4.374207	0.106611
0.8740	4.365810	0.105840
0.8770	4.357743	0.105122
0.8800	4.349985	0.104420
0.8830	4.342500	0.103726
0.8860	4.335263	0.103041
0.8890	4.328256	0.102364
0.8920	4.321464	0.101696
0.8950	4.314873	0.101037
0.8980	4.308472	0.100386
0.9010	4.302249	0.099744
0.9040	4.296196	0.099110
0.9070	4.290303	0.098484
0.9100	4.284563	0.097867
0.9130	4.278967	0.097258
0.9160	4.273510	0.096657
0.9190	4.268184	0.096063
0.9220	4.262984	0.095478
0.9250	4.257905	0.094900
0.9280	4.252942	0.094329
0.9310	4.248090	0.093766
0.9340	4.243344	0.093210
0.9370	4.238701	0.092662
0.9400	4.234157	0.092120
0.9430	4.229707	0.091586
0.9460	4.225349	0.091058
0.9490	4.221079	0.090537
0.9520	4.216894	0.090022
0.9550	4.212792	0.089514
0.9580	4.208769	0.089013
0.9610	4.204823	0.088517
0.9640	4.200952	0.088028
0.9670	4.197152	0.087544
0.9700	4.193423	0.087067
0.9730	4.189762	0.086595
0.9760	4.186166	0.086129
0.9790	4.182633	0.085669
0.9820	4.179163	0.085214
0.9850	4.175754	0.084765
0.9880	4.172402	0.084320
0.9910	4.169108	0.083881
0.9940	4.165869	0.083448
0.9970	4.162684	0.083019
1.0000	4.159551	0.082595
1.0075	4.151940	0.081556
1.0150	4.144629	0.080547
1.0225	4.137598	0.079565
1.0300	4.130833	0.078610
1.0375	4.124317	0.077681
1.0450	4.118037	0.076776
1.0525	4.111980	0.075894
1.0600	4.106135	0.075035
1.0675	4.100491	0.074198
1.0750	4.095037	0.073381
1.0825	4.089765	0.072585
1.0900	4.084665	0.071808
1.0975	4.079730	0.071049
1.1050	4.074952	0.070308
1.1125	4.070325	0.069585
1.1200	4.065841	0.068878
1.1275	4.061494	0.068186
1.1350	4.057279	0.067511
1.1425	4.053190	0.066850
1.1500	4.049222	0.066203
1.1575	4.045370	0.065570
1.1650	4.041630	0.064951
1.1725	4.037997	0.064345
1.1800	4.034467	0.063751
1.1875	4.031037	0.063169
1.1950	4.027702	0.062599
1.2025	4.024460	0.062040
1.2100	4.021306	0.061492
1.2175	4.018239	0.060955
1.2250	4.015254	0.060428
1.2325	4.012349	0.059911
1.2400	4.009521	0.059404
1.2475	4.006768	0.058906
1.2550	4.004087	0.058417
1.2625	4.001476	0.057937
1.2700	3.998933	0.057466
1.2775	3.996455	0.057003
1.2850	3.994041	0.056548
1.2925	3.991688	0.056101
1.3000	3.989395	0.055662
1.3075	3.987160	0.055230
1.3150	3.984981	0.054806
1.3225	3.982856	0.054388
1.3300	3.980784	0.053978
1.3375	3.978764	0.053574
1.3450	3.976793	0.053176
1.3525	3.974871	0.052785
1.3600	3.972996	0.052401
1.3675	3.971167	0.052022
1.3750	3.969382	0.051649
1.3825	3.967641	0.051282
1.3900	3.965942	0.050921
1.3975	3.964284	0.050565
1.4050	3.962666	0.050214
1.4125	3.961087	0.049868
1.4200	3.959546	0.049528
1.4275	3.958042	0.049193
1.4350	3.956575	0.048862
1.4425	3.955142	0.048536
1.4500	3.953744	0.048215
1.4575	3.952379	0.047898
1.4650	3.951047	0.047586
1.4725	3.949747	0.047278
1.4800	3.948478	0.046975
1.4875	3.947239	0.046675
1.4950	3.946030	0.046380
1.5025	3.944850	0.046088
1.5100	3.943699	0.045800
1.5175	3.942575	0.045517
1.5250	3.941478	0.045237
1.5325	3.940408	0.044960
1.5400	3.939363	0.044687
1.5475	3.938344	0.044418
1.5550	3.937350	0.044152
1.5625	3.936380	0.043889
1.5700	3.935433	0.043630
1.5775	3.934510	0.043373
1.5850	3.933610	0.043120
1.5925	3.932732	0.042871
1.6000	3.931875	0.042624
1.6075	3.931041	0.042380
1.6150	3.930227	0.042139
1.6225	3.929433	0.041901
1.6300	3.928660	0.041665
1.6375	3.927906	0.041433
1.6450	3.927171	0.041203
1.6525	3.926456	0.040976
1.6600	3.925759	0.040751
1.6675	3.925080	0.040529
1.6750	3.924420	0.040310
1.6825	3.923776	0.040093
1.6900	3.923150	0.039878
