Material: inorganic / WSe2 / Gu-3L
Optical constants. H. Gu, B. Song, M. Fang, Y. Hong, X. Chen, H. Jiang, W. Ren, and S. Liu, Layer-dependent dielectric and optical properties of centimeter-scale 2D WSe2: evolution from a single layer to few layers. Nanoscale 11, 22762-22771 (2019) (Numerical data kindly provided by Baokun Song)
Comments: 3-layer, 3L
Specs: {"n_absolute": true, "wavelength_vacuum": true, "film_thickness": "3L", "substrate": "sapphire"}
wavelength (um)	n	k
0.1930	1.268272	2.020906
0.1960	1.288218	2.141977
0.1990	1.327645	2.221639
0.2020	1.374807	2.275919
0.2050	1.423897	2.312920
0.2080	1.471449	2.337678
0.2110	1.515254	2.353961
0.2140	1.554011	2.364963
0.2170	1.587202	2.373556
0.2200	1.615031	2.382316
0.2230	1.638367	2.393474
0.2260	1.658660	2.408815
0.2290	1.677848	2.429570
0.2320	1.698238	2.456304
0.2350	1.722352	2.488782
0.2380	1.752718	2.525837
0.2410	1.791538	2.565246
0.2440	1.840193	2.603715
0.2470	1.898602	2.637138
0.2500	1.964604	2.661357
0.2530	2.033850	2.673464
0.2560	2.100705	2.673195
0.2590	2.160169	2.663466
0.2620	2.209784	2.649343
0.2650	2.250286	2.635966
0.2680	2.284711	2.626768
0.2710	2.316820	2.622864
0.2740	2.349831	2.623457
0.2770	2.385818	2.626656
0.2800	2.425642	2.630207
0.2830	2.469161	2.631994
0.2860	2.515511	2.630307
0.2890	2.563370	2.623969
0.2920	2.611184	2.612360
0.2950	2.657352	2.595397
0.2980	2.700370	2.573472
0.3010	2.738947	2.547378
0.3040	2.772075	2.518203
0.3070	2.799083	2.487236
0.3100	2.819644	2.455864
0.3130	2.833768	2.425484
0.3160	2.841772	2.397433
0.3190	2.844243	2.372932
0.3220	2.841997	2.353043
0.3250	2.836039	2.338647
0.3280	2.827532	2.330416
0.3310	2.817758	2.328796
0.3340	2.808098	2.333984
0.3370	2.799983	2.345899
0.3400	2.794857	2.364160
0.3430	2.794114	2.388055
0.3460	2.799014	2.416531
0.3490	2.810592	2.448194
0.3520	2.829542	2.481349
0.3550	2.856107	2.514075
0.3580	2.889980	2.544350
0.3610	2.930240	2.570232
0.3640	2.975355	2.590065
0.3670	3.023271	2.602707
0.3700	3.071590	2.607721
0.3730	3.117837	2.605495
0.3760	3.159763	2.597245
0.3790	3.195636	2.584893
0.3820	3.224449	2.570841
0.3850	3.246034	2.557688
0.3880	3.261047	2.547955
0.3910	3.270878	2.543839
0.3940	3.277502	2.547047
0.3970	3.283312	2.558676
0.4000	3.290950	2.579149
0.4030	3.303151	2.608184
0.4060	3.322577	2.644782
0.4090	3.351664	2.687237
0.4120	3.392445	2.733170
0.4150	3.446372	2.779606
0.4180	3.514132	2.823091
0.4210	3.595478	2.859883
0.4240	3.689087	2.886215
0.4270	3.792507	2.898629
0.4300	3.902221	2.894370
0.4330	4.013876	2.871771
0.4360	4.122685	2.830547
0.4390	4.223952	2.771909
0.4420	4.313610	2.698436
0.4450	4.388665	2.613728
0.4480	4.447420	2.521915
0.4510	4.489480	2.427161
0.4540	4.515552	2.333249
0.4570	4.527156	2.243333
0.4600	4.526306	2.159837
0.4630	4.515245	2.084475
0.4660	4.496246	2.018348
0.4690	4.471498	1.962055
0.4720	4.443044	1.915814
0.4750	4.412774	1.879549
0.4780	4.382430	1.852956
0.4810	4.353629	1.835537
0.4840	4.327878	1.826611
0.4870	4.306586	1.825304
0.4900	4.291037	1.830533
0.4930	4.282368	1.840981
0.4960	4.281498	1.855094
0.4990	4.289057	1.871092
0.5020	4.305299	1.887020
0.5050	4.330021	1.900835
0.5080	4.362516	1.910532
0.5110	4.401565	1.914300
0.5140	4.445491	1.910681
0.5170	4.492277	1.898713
0.5200	4.539733	1.878020
0.5230	4.585691	1.848840
0.5260	4.628192	1.811969
0.5290	4.665644	1.768653
0.5320	4.696908	1.720425
0.5350	4.721331	1.668949
0.5380	4.738709	1.615866
0.5410	4.749220	1.562688
0.5440	4.753335	1.510726
0.5470	4.751723	1.461063
0.5500	4.745181	1.414551
0.5530	4.734569	1.371834
0.5560	4.720774	1.333370
0.5590	4.704691	1.299464
0.5620	4.687213	1.270285
0.5650	4.669239	1.245881
0.5680	4.651675	1.226173
0.5710	4.635440	1.210939
0.5740	4.621459	1.199787
0.5770	4.610630	1.192111
0.5800	4.603769	1.187058
0.5830	4.601521	1.183505
0.5860	4.604236	1.180086
0.5890	4.611849	1.175272
0.5920	4.623786	1.167533
0.5950	4.638949	1.155550
0.5980	4.655814	1.138435
0.6010	4.672637	1.115889
0.6040	4.687723	1.088238
0.6070	4.699664	1.056340
0.6100	4.707507	1.021393
0.6130	4.710795	0.984707
0.6160	4.709510	0.947522
0.6190	4.703958	0.910874
0.6220	4.694643	0.875554
0.6250	4.682159	0.842101
0.6280	4.667099	0.810840
0.6310	4.650016	0.781930
0.6340	4.631391	0.755408
0.6370	4.611625	0.731233
0.6400	4.591045	0.709313
0.6430	4.569908	0.689531
0.6460	4.548414	0.671762
0.6490	4.526713	0.655881
0.6520	4.504916	0.641771
0.6550	4.483105	0.629330
0.6580	4.461333	0.618468
0.6610	4.439640	0.609111
0.6640	4.418046	0.601204
0.6670	4.396567	0.594708
0.6700	4.375206	0.589601
0.6730	4.353967	0.585878
0.6760	4.332850	0.583555
0.6790	4.311857	0.582666
0.6820	4.290995	0.583263
0.6850	4.270281	0.585423
0.6880	4.249744	0.589246
0.6910	4.229434	0.594857
0.6940	4.209433	0.602410
0.6970	4.189866	0.612087
0.7000	4.170931	0.624100
0.7030	4.152957	0.638687
0.7060	4.136565	0.656083
0.7090	4.124311	0.676197
0.7120	4.110467	0.692085
0.7150	4.094430	0.714236
0.7180	4.079843	0.742342
0.7210	4.068485	0.776402
0.7240	4.062086	0.816336
0.7270	4.062574	0.861799
0.7300	4.072141	0.911955
0.7330	4.093173	0.965200
0.7360	4.128016	1.018829
0.7390	4.178494	1.068683
0.7420	4.244955	1.108801
0.7450	4.323989	1.131418
0.7480	4.403214	1.131900
0.7510	4.475949	1.127791
0.7540	4.559768	1.109511
0.7570	4.639610	1.069647
0.7600	4.707967	1.012743
0.7630	4.760944	0.944536
0.7660	4.797476	0.870854
0.7690	4.818606	0.796629
0.7720	4.826598	0.725416
0.7750	4.824163	0.659388
0.7780	4.813924	0.599589
0.7810	4.798148	0.546275
0.7840	4.778654	0.499215
0.7870	4.756835	0.457916
0.7900	4.733714	0.421771
0.7930	4.710026	0.390160
0.7960	4.686281	0.362487
0.7990	4.662825	0.338217
0.8020	4.639886	0.316873
0.8050	4.617604	0.298044
0.8080	4.596062	0.281377
0.8110	4.575300	0.266571
0.8140	4.555327	0.253369
0.8170	4.536138	0.241553
0.8200	4.517709	0.230941
0.8230	4.500012	0.221374
0.8260	4.483014	0.212719
0.8290	4.466677	0.204864
0.8320	4.450962	0.197710
0.8350	4.435832	0.191175
0.8380	4.421246	0.185186
0.8410	4.407166	0.179682
0.8440	4.393550	0.174611
0.8470	4.380359	0.169925
0.8500	4.367546	0.165586
0.8530	4.355058	0.161558
0.8560	4.342824	0.157812
0.8590	4.330721	0.154325
0.8620	4.318369	0.151085
0.8650	4.305938	0.149910
0.8680	4.295221	0.149089
0.8710	4.285286	0.148261
0.8740	4.275931	0.147432
0.8770	4.267050	0.146606
0.8800	4.258576	0.145784
0.8830	4.250461	0.144967
0.8860	4.242666	0.144158
0.8890	4.235163	0.143355
0.8920	4.227926	0.142560
0.8950	4.220934	0.141773
0.8980	4.214170	0.140995
0.9010	4.207618	0.140224
0.9040	4.201263	0.139462
0.9070	4.195095	0.138709
0.9100	4.189100	0.137964
0.9130	4.183271	0.137228
0.9160	4.177598	0.136500
0.9190	4.172071	0.135781
0.9220	4.166686	0.135071
0.9250	4.161433	0.134368
0.9280	4.156308	0.133675
0.9310	4.151304	0.132989
0.9340	4.146416	0.132312
0.9370	4.141639	0.131643
0.9400	4.136968	0.130981
0.9430	4.132400	0.130328
0.9460	4.127929	0.129683
0.9490	4.123552	0.129045
0.9520	4.119267	0.128415
0.9550	4.115068	0.127792
0.9580	4.110953	0.127177
0.9610	4.106920	0.126569
0.9640	4.102965	0.125968
0.9670	4.099085	0.125374
0.9700	4.095279	0.124788
0.9730	4.091544	0.124208
0.9760	4.087877	0.123634
0.9790	4.084277	0.123068
0.9820	4.080741	0.122508
0.9850	4.077267	0.121954
0.9880	4.073854	0.121407
0.9910	4.070500	0.120866
0.9940	4.067203	0.120331
0.9970	4.063961	0.119803
1.0000	4.060773	0.119280
1.0075	4.053031	0.117998
1.0150	4.045595	0.116752
1.0225	4.038447	0.115539
1.0300	4.031568	0.114359
1.0375	4.024944	0.113210
1.0450	4.018559	0.112091
1.0525	4.012399	0.111001
1.0600	4.006454	0.109939
1.0675	4.000711	0.108904
1.0750	3.995161	0.107895
1.0825	3.989793	0.106910
1.0900	3.984599	0.105950
1.0975	3.979570	0.105012
1.1050	3.974699	0.104097
1.1125	3.969978	0.103203
1.1200	3.965401	0.102331
1.1275	3.960962	0.101478
1.1350	3.956654	0.100644
1.1425	3.952472	0.099830
1.1500	3.948411	0.099033
1.1575	3.944465	0.098254
1.1650	3.940631	0.097492
1.1725	3.936904	0.096746
1.1800	3.933279	0.096016
1.1875	3.929754	0.095302
1.1950	3.926323	0.094602
1.2025	3.922984	0.093917
1.2100	3.919733	0.093246
1.2175	3.916568	0.092588
1.2250	3.913485	0.091944
1.2325	3.910480	0.091312
1.2400	3.907553	0.090693
1.2475	3.904700	0.090086
1.2550	3.901917	0.089490
1.2625	3.899205	0.088906
1.2700	3.896559	0.088333
1.2775	3.893978	0.087771
1.2850	3.891459	0.087219
1.2925	3.889002	0.086677
1.3000	3.886603	0.086145
1.3075	3.884262	0.085623
1.3150	3.881975	0.085111
1.3225	3.879743	0.084607
1.3300	3.877562	0.084112
1.3375	3.875432	0.083626
1.3450	3.873351	0.083149
1.3525	3.871318	0.082679
1.3600	3.869332	0.082218
1.3675	3.867390	0.081764
1.3750	3.865492	0.081318
1.3825	3.863637	0.080880
1.3900	3.861823	0.080449
1.3975	3.860050	0.080025
1.4050	3.858316	0.079608
1.4125	3.856620	0.079197
1.4200	3.854962	0.078793
1.4275	3.853339	0.078396
1.4350	3.851752	0.078005
1.4425	3.850200	0.077620
1.4500	3.848681	0.077241
1.4575	3.847195	0.076868
1.4650	3.845740	0.076501
1.4725	3.844317	0.076140
1.4800	3.842925	0.075783
1.4875	3.841562	0.075433
1.4950	3.840227	0.075087
1.5025	3.838922	0.074747
1.5100	3.837643	0.074412
1.5175	3.836392	0.074082
1.5250	3.835167	0.073756
1.5325	3.833968	0.073436
1.5400	3.832794	0.073120
1.5475	3.831645	0.072808
1.5550	3.830520	0.072501
1.5625	3.829418	0.072199
1.5700	3.828339	0.071900
1.5775	3.827283	0.071606
1.5850	3.826248	0.071316
1.5925	3.825236	0.071030
1.6000	3.824244	0.070748
1.6075	3.823273	0.070470
1.6150	3.822322	0.070195
1.6225	3.821391	0.069925
1.6300	3.820480	0.069658
1.6375	3.819587	0.069395
1.6450	3.818713	0.069135
1.6525	3.817857	0.068878
1.6600	3.817019	0.068625
1.6675	3.816199	0.068376
1.6750	3.815396	0.068129
1.6825	3.814609	0.067886
1.6900	3.813839	0.067646
