Material: inorganic / WSe2 / Gu-4L
Optical constants. H. Gu, B. Song, M. Fang, Y. Hong, X. Chen, H. Jiang, W. Ren, and S. Liu, Layer-dependent dielectric and optical properties of centimeter-scale 2D WSe2: evolution from a single layer to few layers. Nanoscale 11, 22762-22771 (2019) (Numerical data kindly provided by Baokun Song)
Comments: 4-layer, 4L
Specs: {"n_absolute": true, "wavelength_vacuum": true, "film_thickness": "4L", "substrate": "sapphire"}
wavelength (um)	n	k
0.1930	1.392710	2.138145
0.1960	1.405026	2.267860
0.1990	1.442322	2.347598
0.2020	1.488451	2.399985
0.2050	1.536569	2.435161
0.2080	1.583053	2.458910
0.2110	1.625839	2.475264
0.2140	1.663874	2.487449
0.2170	1.696908	2.498216
0.2200	1.725384	2.509921
0.2230	1.750348	2.524497
0.2260	1.773352	2.543377
0.2290	1.796339	2.567404
0.2320	1.821501	2.596728
0.2350	1.851089	2.630716
0.2380	1.887170	2.667880
0.2410	1.931295	2.705877
0.2440	1.984095	2.741642
0.2470	2.044864	2.771767
0.2500	2.111314	2.793173
0.2530	2.179733	2.804003
0.2560	2.245766	2.804384
0.2590	2.305634	2.796611
0.2620	2.357288	2.784475
0.2650	2.400882	2.772022
0.2680	2.438397	2.762357
0.2710	2.472730	2.757007
0.2740	2.506765	2.755928
0.2770	2.542737	2.757901
0.2800	2.581945	2.761072
0.2830	2.624744	2.763416
0.2860	2.670682	2.763084
0.2890	2.718698	2.758622
0.2920	2.767336	2.749095
0.2950	2.814957	2.734127
0.2980	2.859916	2.713891
0.3010	2.900724	2.689048
0.3040	2.936167	2.660652
0.3070	2.965384	2.630039
0.3100	2.987912	2.598701
0.3130	3.003680	2.568177
0.3160	3.012988	2.539952
0.3190	3.016463	2.515383
0.3220	3.015002	2.495638
0.3250	3.009726	2.481661
0.3280	3.001923	2.474144
0.3310	2.993002	2.473501
0.3340	2.984448	2.479854
0.3370	2.977770	2.493010
0.3400	2.974438	2.512450
0.3430	2.975821	2.537313
0.3460	2.983093	2.566409
0.3490	2.997144	2.598244
0.3520	3.018481	2.631081
0.3550	3.047139	2.663040
0.3580	3.082613	2.692236
0.3610	3.123845	2.716950
0.3640	3.169266	2.735822
0.3670	3.216913	2.748026
0.3700	3.264632	2.753405
0.3730	3.310309	2.752522
0.3760	3.352138	2.746615
0.3790	3.388830	2.737443
0.3820	3.419762	2.727076
0.3850	3.445019	2.717645
0.3880	3.465348	2.711113
0.3910	3.482052	2.709094
0.3940	3.496834	2.712725
0.3970	3.511641	2.722604
0.4000	3.528502	2.738764
0.4030	3.549394	2.760696
0.4060	3.576114	2.787385
0.4090	3.610170	2.817370
0.4120	3.652686	2.848823
0.4150	3.704325	2.879642
0.4180	3.765221	2.907561
0.4210	3.834941	2.930274
0.4240	3.912474	2.945586
0.4270	3.996247	2.951559
0.4300	4.084203	2.946667
0.4330	4.173915	2.929933
0.4360	4.262750	2.901026
0.4390	4.348065	2.860299
0.4420	4.427413	2.808769
0.4450	4.498719	2.748011
0.4480	4.560415	2.680017
0.4510	4.611511	2.607010
0.4540	4.651594	2.531268
0.4570	4.680774	2.454971
0.4600	4.699594	2.380088
0.4630	4.708927	2.308310
0.4660	4.709867	2.241025
0.4690	4.703643	2.179321
0.4720	4.691553	2.124010
0.4750	4.674918	2.075667
0.4780	4.655056	2.034653
0.4810	4.633274	2.001151
0.4840	4.610860	1.975175
0.4870	4.589096	1.956575
0.4900	4.569250	1.945029
0.4930	4.552570	1.940022
0.4960	4.540262	1.940816
0.4990	4.533445	1.946428
0.5020	4.533085	1.955605
0.5050	4.539916	1.966836
0.5080	4.554332	1.978379
0.5110	4.576299	1.988353
0.5140	4.605282	1.994853
0.5170	4.640215	1.996124
0.5200	4.679545	1.990736
0.5230	4.721351	1.977746
0.5260	4.763512	1.956813
0.5290	4.803933	1.928230
0.5320	4.840747	1.892871
0.5350	4.872488	1.852063
0.5380	4.898180	1.807410
0.5410	4.917371	1.760613
0.5440	4.930079	1.713312
0.5470	4.936719	1.666969
0.5500	4.937996	1.622796
0.5530	4.934812	1.581731
0.5560	4.928179	1.544432
0.5590	4.919163	1.511293
0.5620	4.908827	1.482468
0.5650	4.898203	1.457884
0.5680	4.888258	1.437262
0.5710	4.879863	1.420125
0.5740	4.873761	1.405811
0.5770	4.870515	1.393493
0.5800	4.870466	1.382216
0.5830	4.873668	1.370948
0.5860	4.879796	1.358682
0.5890	4.888478	1.345186
0.5920	4.899730	1.328945
0.5950	4.912181	1.309297
0.5980	4.924717	1.286056
0.6010	4.936284	1.259347
0.6040	4.945965	1.229568
0.6070	4.953044	1.197327
0.6100	4.957047	1.163350
0.6130	4.957733	1.128400
0.6160	4.955076	1.093197
0.6190	4.949213	1.058378
0.6220	4.940396	1.024463
0.6250	4.928943	0.991855
0.6280	4.915202	0.960841
0.6310	4.899520	0.931612
0.6340	4.882225	0.904276
0.6370	4.863612	0.878881
0.6400	4.843941	0.855428
0.6430	4.823433	0.833886
0.6460	4.802276	0.814208
0.6490	4.780619	0.796332
0.6520	4.758585	0.780194
0.6550	4.736271	0.765732
0.6580	4.713752	0.752888
0.6610	4.691084	0.741613
0.6640	4.668306	0.731867
0.6670	4.645448	0.723623
0.6700	4.622529	0.716865
0.6730	4.599558	0.711594
0.6760	4.576543	0.707826
0.6790	4.553485	0.705595
0.6820	4.530389	0.704955
0.6850	4.507258	0.705979
0.6880	4.484103	0.708766
0.6910	4.460943	0.713445
0.6940	4.437814	0.720171
0.6970	4.414771	0.729138
0.7000	4.391901	0.740576
0.7030	4.369335	0.754762
0.7060	4.347265	0.772019
0.7090	4.325963	0.792718
0.7120	4.305816	0.817279
0.7150	4.287363	0.846158
0.7180	4.271343	0.879830
0.7210	4.258759	0.918735
0.7240	4.250939	0.963211
0.7270	4.249601	1.013360
0.7300	4.256879	1.068855
0.7330	4.275283	1.128672
0.7360	4.307504	1.190767
0.7390	4.356008	1.251755
0.7420	4.422351	1.306765
0.7450	4.506268	1.349663
0.7480	4.604803	1.373909
0.7510	4.711936	1.374029
0.7540	4.819210	1.347350
0.7570	4.917475	1.295163
0.7600	4.999122	1.222597
0.7630	5.059773	1.137129
0.7660	5.098676	1.046530
0.7690	5.117901	0.957226
0.7720	5.121046	0.873570
0.7750	5.112069	0.797915
0.7780	5.094575	0.731087
0.7810	5.071496	0.672932
0.7840	5.045050	0.622766
0.7870	5.016832	0.579679
0.7900	4.987945	0.542718
0.7930	4.959118	0.510981
0.7960	4.930820	0.483666
0.7990	4.903331	0.460077
0.8020	4.876807	0.439624
0.8050	4.851315	0.421814
0.8080	4.826869	0.406234
0.8110	4.803439	0.392543
0.8140	4.780972	0.380459
0.8170	4.759394	0.369745
0.8200	4.738611	0.360209
0.8230	4.718505	0.351689
0.8260	4.698906	0.344055
0.8290	4.679513	0.337210
0.8320	4.659111	0.331136
0.8350	4.639908	0.330381
0.8380	4.624017	0.329563
0.8410	4.609661	0.328676
0.8440	4.596418	0.327751
0.8470	4.584064	0.326803
0.8500	4.572449	0.325839
0.8530	4.561469	0.324868
0.8560	4.551044	0.323894
0.8590	4.541110	0.322920
0.8620	4.531615	0.321949
0.8650	4.522518	0.320983
0.8680	4.513782	0.320024
0.8710	4.505375	0.319073
0.8740	4.497273	0.318132
0.8770	4.489450	0.317201
0.8800	4.481888	0.316280
0.8830	4.474568	0.315371
0.8860	4.467474	0.314474
0.8890	4.460590	0.313589
0.8920	4.453906	0.312717
0.8950	4.447408	0.311857
0.8980	4.441086	0.311010
0.9010	4.434930	0.310176
0.9040	4.428933	0.309355
0.9070	4.423084	0.308547
0.9100	4.417378	0.307751
0.9130	4.411807	0.306969
0.9160	4.406365	0.306199
0.9190	4.401046	0.305442
0.9220	4.395844	0.304698
0.9250	4.390754	0.303966
0.9280	4.385773	0.303246
0.9310	4.380894	0.302539
0.9340	4.376115	0.301844
0.9370	4.371430	0.301161
0.9400	4.366838	0.300490
0.9430	4.362333	0.299830
0.9460	4.357913	0.299182
0.9490	4.353576	0.298545
0.9520	4.349317	0.297920
0.9550	4.345134	0.297305
0.9580	4.341025	0.296702
0.9610	4.336987	0.296109
0.9640	4.333019	0.295527
0.9670	4.329116	0.294955
0.9700	4.325279	0.294393
0.9730	4.321504	0.293842
0.9760	4.317791	0.293301
0.9790	4.314135	0.292769
0.9820	4.310537	0.292247
0.9850	4.306995	0.291735
0.9880	4.303506	0.291232
0.9910	4.300071	0.290738
0.9940	4.296686	0.290253
0.9970	4.293350	0.289778
1.0000	4.290063	0.289311
1.0075	4.282049	0.288182
1.0150	4.274311	0.287104
1.0225	4.266830	0.286077
1.0300	4.259593	0.285099
1.0375	4.252586	0.284167
1.0450	4.245795	0.283279
1.0525	4.239208	0.282435
1.0600	4.232815	0.281633
1.0675	4.226606	0.280870
1.0750	4.220571	0.280146
1.0825	4.214702	0.279460
1.0900	4.208991	0.278809
1.0975	4.203429	0.278193
1.1050	4.198010	0.277610
1.1125	4.192729	0.277060
1.1200	4.187577	0.276542
1.1275	4.182551	0.276053
1.1350	4.177643	0.275594
1.1425	4.172850	0.275163
1.1500	4.168167	0.274759
1.1575	4.163588	0.274382
1.1650	4.159110	0.274031
1.1725	4.154728	0.273704
1.1800	4.150439	0.273402
1.1875	4.146239	0.273123
1.1950	4.142126	0.272867
1.2025	4.138094	0.272633
1.2100	4.134142	0.272420
1.2175	4.130266	0.272228
1.2250	4.126464	0.272056
1.2325	4.122734	0.271903
1.2400	4.119071	0.271770
1.2475	4.115474	0.271655
1.2550	4.111941	0.271558
1.2625	4.108470	0.271478
1.2700	4.105058	0.271416
1.2775	4.101704	0.271370
1.2850	4.098404	0.271340
1.2925	4.095159	0.271326
1.3000	4.091965	0.271328
1.3075	4.088821	0.271344
1.3150	4.085725	0.271374
1.3225	4.082677	0.271419
1.3300	4.079674	0.271478
1.3375	4.076715	0.271550
1.3450	4.073798	0.271635
1.3525	4.070923	0.271733
1.3600	4.068088	0.271844
1.3675	4.065290	0.271966
1.3750	4.062531	0.272101
1.3825	4.059808	0.272247
1.3900	4.057121	0.272405
1.3975	4.054467	0.272573
1.4050	4.051847	0.272753
1.4125	4.049259	0.272943
1.4200	4.046702	0.273143
1.4275	4.044175	0.273354
1.4350	4.041678	0.273574
1.4425	4.039209	0.273805
1.4500	4.036768	0.274044
1.4575	4.034354	0.274293
1.4650	4.031965	0.274551
1.4725	4.029603	0.274818
1.4800	4.027265	0.275094
1.4875	4.024950	0.275378
1.4950	4.022659	0.275670
1.5025	4.020391	0.275971
1.5100	4.018144	0.276279
1.5175	4.015919	0.276596
1.5250	4.013714	0.276920
1.5325	4.011530	0.277252
1.5400	4.009365	0.277591
1.5475	4.007219	0.277937
1.5550	4.005092	0.278291
1.5625	4.002982	0.278651
1.5700	4.000890	0.279019
1.5775	3.998815	0.279393
1.5850	3.996756	0.279773
1.5925	3.994713	0.280160
1.6000	3.992686	0.280554
1.6075	3.990674	0.280953
1.6150	3.988677	0.281359
1.6225	3.986694	0.281771
1.6300	3.984725	0.282189
1.6375	3.982769	0.282612
1.6450	3.980826	0.283042
1.6525	3.978896	0.283476
1.6600	3.976979	0.283917
1.6675	3.975074	0.284363
1.6750	3.973180	0.284814
1.6825	3.971298	0.285270
1.6900	3.969426	0.285732
