Material: inorganic / WSe2 / Gu-5L
Optical constants. H. Gu, B. Song, M. Fang, Y. Hong, X. Chen, H. Jiang, W. Ren, and S. Liu, Layer-dependent dielectric and optical properties of centimeter-scale 2D WSe2: evolution from a single layer to few layers. Nanoscale 11, 22762-22771 (2019) (Numerical data kindly provided by Baokun Song)
Comments: 5-layer, 5L
Specs: {"n_absolute": true, "wavelength_vacuum": true, "film_thickness": "4L", "substrate": "sapphire"}
wavelength (um)	n	k
0.1930	1.239153	2.254570
0.1960	1.241936	2.389193
0.1990	1.277657	2.455787
0.2020	1.321084	2.500286
0.2050	1.366273	2.533800
0.2080	1.410858	2.560705
0.2110	1.453623	2.583406
0.2140	1.493916	2.603601
0.2170	1.531463	2.622699
0.2200	1.566317	2.641964
0.2230	1.598848	2.662542
0.2260	1.629739	2.685444
0.2290	1.659988	2.711485
0.2320	1.690904	2.741208
0.2350	1.724076	2.774759
0.2380	1.761302	2.811740
0.2410	1.804435	2.851022
0.2440	1.855073	2.890576
0.2470	1.914067	2.927420
0.2500	1.980844	2.957892
0.2530	2.052827	2.978479
0.2560	2.125467	2.987186
0.2590	2.193406	2.984823
0.2620	2.252517	2.975178
0.2650	2.301594	2.963577
0.2680	2.342503	2.954711
0.2710	2.378920	2.951138
0.2740	2.414705	2.953053
0.2770	2.452808	2.958948
0.2800	2.494865	2.966478
0.2830	2.541262	2.973154
0.2860	2.591392	2.976787
0.2890	2.643954	2.975722
0.2920	2.697229	2.968947
0.2950	2.749325	2.956120
0.2980	2.798392	2.937534
0.3010	2.842799	2.914032
0.3040	2.881272	2.886890
0.3070	2.912977	2.857667
0.3100	2.937557	2.828057
0.3130	2.955119	2.799747
0.3160	2.966181	2.774296
0.3190	2.971606	2.753050
0.3220	2.972515	2.737087
0.3250	2.970210	2.727178
0.3280	2.966095	2.723779
0.3310	2.961609	2.727035
0.3340	2.958163	2.736784
0.3370	2.957087	2.752579
0.3400	2.959576	2.773711
0.3430	2.966644	2.799241
0.3460	2.979076	2.828036
0.3490	2.997393	2.858819
0.3520	3.021818	2.890225
0.3550	3.052253	2.920871
0.3580	3.088277	2.949425
0.3610	3.129153	2.974691
0.3640	3.173860	2.995687
0.3670	3.221153	3.011723
0.3700	3.269635	3.022459
0.3730	3.317861	3.027945
0.3760	3.364445	3.028633
0.3790	3.408178	3.025348
0.3820	3.448121	3.019230
0.3850	3.483690	3.011650
0.3880	3.514708	3.004103
0.3910	3.541417	2.998097
0.3940	3.564475	2.995044
0.3970	3.584911	2.996155
0.4000	3.604074	3.002360
0.4030	3.623548	3.014231
0.4060	3.645058	3.031933
0.4090	3.670332	3.055207
0.4120	3.700831	3.083468
0.4150	3.738502	3.118159
0.4180	3.789158	3.153961
0.4210	3.850399	3.187290
0.4240	3.921932	3.216020
0.4270	4.003060	3.237634
0.4300	4.092390	3.249613
0.4330	4.187791	3.249732
0.4360	4.286467	3.236339
0.4390	4.385149	3.208586
0.4420	4.480378	3.166588
0.4450	4.568844	3.111449
0.4480	4.647707	3.045156
0.4510	4.714853	2.970354
0.4540	4.769028	2.890048
0.4570	4.809847	2.807303
0.4600	4.837696	2.724987
0.4630	4.853566	2.645592
0.4660	4.858871	2.571148
0.4690	4.855274	2.503199
0.4720	4.844553	2.442839
0.4750	4.828499	2.390759
0.4780	4.808863	2.347318
0.4810	4.787320	2.312594
0.4840	4.765461	2.286423
0.4870	4.744787	2.268431
0.4900	4.726709	2.258041
0.4930	4.712533	2.254472
0.4960	4.703444	2.256737
0.4990	4.700467	2.263632
0.5020	4.704413	2.273746
0.5050	4.715821	2.285483
0.5080	4.734890	2.297109
0.5110	4.761425	2.306832
0.5140	4.794794	2.312901
0.5170	4.833938	2.313741
0.5200	4.877408	2.308074
0.5230	4.923462	2.295036
0.5260	4.970198	2.274258
0.5290	5.015710	2.245893
0.5320	5.058246	2.210583
0.5350	5.096343	2.169381
0.5380	5.128918	2.123626
0.5410	5.155308	2.074810
0.5440	5.175261	2.024451
0.5470	5.188896	1.973983
0.5500	5.196632	1.924685
0.5530	5.199120	1.877634
0.5560	5.197169	1.833684
0.5590	5.191694	1.793471
0.5620	5.183667	1.757415
0.5650	5.174085	1.725733
0.5680	5.163946	1.698449
0.5710	5.154227	1.675394
0.5740	5.145856	1.656205
0.5770	5.139682	1.640320
0.5800	5.136429	1.626982
0.5830	5.136639	1.615249
0.5860	5.140608	1.604031
0.5890	5.148333	1.592155
0.5920	5.159464	1.578458
0.5950	5.173312	1.561904
0.5980	5.188892	1.541705
0.6010	5.205022	1.517416
0.6040	5.220460	1.488981
0.6070	5.234044	1.456724
0.6100	5.244813	1.421280
0.6130	5.252087	1.383485
0.6160	5.255487	1.344265
0.6190	5.254917	1.304524
0.6220	5.250507	1.265072
0.6250	5.242552	1.226581
0.6280	5.231441	1.189563
0.6310	5.217609	1.154386
0.6340	5.201490	1.121286
0.6370	5.183493	1.090393
0.6400	5.163987	1.061757
0.6430	5.143291	1.035371
0.6460	5.121677	1.011188
0.6490	5.099368	0.989136
0.6520	5.076545	0.969134
0.6550	5.053352	0.951094
0.6580	5.029902	0.934934
0.6610	5.006281	0.920577
0.6640	4.982553	0.907955
0.6670	4.958762	0.897016
0.6700	4.934942	0.887719
0.6730	4.911112	0.880040
0.6760	4.887286	0.873971
0.6790	4.863470	0.869521
0.6820	4.839669	0.866720
0.6850	4.815886	0.865618
0.6880	4.792130	0.866287
0.6910	4.768412	0.868827
0.6940	4.744758	0.873365
0.6970	4.721208	0.880058
0.7000	4.697827	0.889100
0.7030	4.674713	0.900723
0.7060	4.652009	0.915204
0.7090	4.629922	0.932862
0.7120	4.608745	0.954065
0.7150	4.588886	0.979222
0.7180	4.570906	1.008771
0.7210	4.555568	1.043159
0.7240	4.543888	1.082788
0.7270	4.537200	1.127945
0.7300	4.537202	1.178670
0.7330	4.545976	1.234577
0.7360	4.565935	1.294601
0.7390	4.599632	1.356711
0.7420	4.649376	1.417631
0.7450	4.716612	1.472720
0.7480	4.801104	1.516199
0.7510	4.900172	1.541903
0.7540	5.008348	1.544585
0.7570	5.117887	1.521438
0.7600	5.220238	1.473197
0.7630	5.308015	1.404156
0.7660	5.376609	1.321001
0.7690	5.424768	1.231024
0.7720	5.454161	1.140556
0.7750	5.468609	1.054089
0.7780	5.476540	0.971335
0.7810	5.465348	0.886078
0.7840	5.442317	0.814011
0.7870	5.413752	0.752861
0.7900	5.382439	0.700942
0.7930	5.350036	0.656795
0.7960	5.317569	0.619161
0.7990	5.285674	0.586968
0.8020	5.254730	0.559316
0.8050	5.224946	0.535455
0.8080	5.196422	0.514766
0.8110	5.169186	0.496736
0.8140	5.143220	0.480947
0.8170	5.118480	0.467050
0.8200	5.094903	0.454760
0.8230	5.072417	0.443840
0.8260	5.050946	0.434094
0.8290	5.030410	0.425359
0.8320	5.010730	0.417498
0.8350	4.991819	0.410398
0.8380	4.973588	0.403965
0.8410	4.955926	0.398120
0.8440	4.938681	0.392801
0.8470	4.921535	0.387970
0.8500	4.903501	0.385034
0.8530	4.888162	0.384081
0.8560	4.874328	0.383054
0.8590	4.861495	0.381991
0.8620	4.849450	0.380906
0.8650	4.838060	0.379807
0.8680	4.827237	0.378702
0.8710	4.816911	0.377593
0.8740	4.807030	0.376484
0.8770	4.797550	0.375378
0.8800	4.788434	0.374276
0.8830	4.779651	0.373179
0.8860	4.771175	0.372090
0.8890	4.762984	0.371008
0.8920	4.755056	0.369936
0.8950	4.747375	0.368873
0.8980	4.739923	0.367820
0.9010	4.732687	0.366777
0.9040	4.725653	0.365746
0.9070	4.718812	0.364726
0.9100	4.712150	0.363717
0.9130	4.705659	0.362719
0.9160	4.699331	0.361734
0.9190	4.693156	0.360760
0.9220	4.687128	0.359798
0.9250	4.681239	0.358848
0.9280	4.675484	0.357910
0.9310	4.669855	0.356984
0.9340	4.664349	0.356070
0.9370	4.658958	0.355168
0.9400	4.653680	0.354277
0.9430	4.648508	0.353399
0.9460	4.643440	0.352531
0.9490	4.638471	0.351676
0.9520	4.633596	0.350832
0.9550	4.628814	0.349999
0.9580	4.624120	0.349177
0.9610	4.619511	0.348366
0.9640	4.614985	0.347567
0.9670	4.610538	0.346778
0.9700	4.606168	0.346000
0.9730	4.601873	0.345233
0.9760	4.597650	0.344476
0.9790	4.593496	0.343729
0.9820	4.589409	0.342993
0.9850	4.585389	0.342267
0.9880	4.581432	0.341550
0.9910	4.577536	0.340844
0.9940	4.573700	0.340147
0.9970	4.569923	0.339460
1.0000	4.566202	0.338782
1.0075	4.557136	0.337129
1.0150	4.548390	0.335531
1.0225	4.539945	0.333989
1.0300	4.531780	0.332498
1.0375	4.523880	0.331059
1.0450	4.516228	0.329668
1.0525	4.508811	0.328325
1.0600	4.501615	0.327028
1.0675	4.494628	0.325775
1.0750	4.487839	0.324564
1.0825	4.481238	0.323395
1.0900	4.474815	0.322266
1.0975	4.468562	0.321176
1.1050	4.462470	0.320123
1.1125	4.456531	0.319106
1.1200	4.450738	0.318125
1.1275	4.445086	0.317177
1.1350	4.439566	0.316262
1.1425	4.434173	0.315379
1.1500	4.428902	0.314526
1.1575	4.423748	0.313704
1.1650	4.418705	0.312910
1.1725	4.413768	0.312145
1.1800	4.408934	0.311407
1.1875	4.404198	0.310696
1.1950	4.399556	0.310010
1.2025	4.395005	0.309349
1.2100	4.390540	0.308713
1.2175	4.386159	0.308100
1.2250	4.381858	0.307511
1.2325	4.377635	0.306943
1.2400	4.373485	0.306397
1.2475	4.369407	0.305873
1.2550	4.365398	0.305369
1.2625	4.361455	0.304885
1.2700	4.357577	0.304421
1.2775	4.353760	0.303975
1.2850	4.350002	0.303548
1.2925	4.346301	0.303139
1.3000	4.342656	0.302748
1.3075	4.339064	0.302374
1.3150	4.335524	0.302017
1.3225	4.332033	0.301676
1.3300	4.328590	0.301351
1.3375	4.325194	0.301042
1.3450	4.321842	0.300748
1.3525	4.318534	0.300468
1.3600	4.315268	0.300204
1.3675	4.312042	0.299953
1.3750	4.308855	0.299716
1.3825	4.305706	0.299493
1.3900	4.302593	0.299283
1.3975	4.299516	0.299087
1.4050	4.296473	0.298902
1.4125	4.293463	0.298731
1.4200	4.290485	0.298571
1.4275	4.287539	0.298423
1.4350	4.284622	0.298287
1.4425	4.281734	0.298163
1.4500	4.278874	0.298049
1.4575	4.276042	0.297947
1.4650	4.273235	0.297855
1.4725	4.270455	0.297774
1.4800	4.267699	0.297703
1.4875	4.264966	0.297642
1.4950	4.262257	0.297591
1.5025	4.259570	0.297550
1.5100	4.256905	0.297519
1.5175	4.254261	0.297497
1.5250	4.251637	0.297484
1.5325	4.249033	0.297480
1.5400	4.246448	0.297485
1.5475	4.243881	0.297499
1.5550	4.241332	0.297521
1.5625	4.238800	0.297551
1.5700	4.236285	0.297590
1.5775	4.233786	0.297637
1.5850	4.231303	0.297692
1.5925	4.228834	0.297755
1.6000	4.226381	0.297826
1.6075	4.223941	0.297904
1.6150	4.221515	0.297990
1.6225	4.219103	0.298083
1.6300	4.216703	0.298183
1.6375	4.214315	0.298290
1.6450	4.211940	0.298405
1.6525	4.209576	0.298526
1.6600	4.207222	0.298654
1.6675	4.204880	0.298789
1.6750	4.202549	0.298930
1.6825	4.200226	0.299078
1.6900	4.197914	0.299232
