Material: inorganic / WSe2 / Munkhbat-o
Optical constants. B. Munkhbat, P. Wrobel, T. J. Antosiewicz, T. O. Shegai. Optical constants of several multilayer transition metal dichalcogenides spectroscopic ellipsometry in the 300–1700 nm range: High index, anisotropy, and hyperbolicity, ACS Photonics 9, 2398–2407 (2022) (Numerical data kindly provided by Tomasz Antosiewicz)
Comments: Multilayer flakes. In-plane (ordinary ray, o). Room temperature.
Specs: {"n_absolute": true, "wavelength_vacuum": true}
wavelength (um)	n	k
3.000000e-01	3.320273e+00	2.376159e+00
3.030000e-01	3.317376e+00	2.335244e+00
3.060000e-01	3.306578e+00	2.309913e+00
3.090000e-01	3.295775e+00	2.298228e+00
3.120000e-01	3.288928e+00	2.296160e+00
3.150000e-01	3.287250e+00	2.300071e+00
3.180000e-01	3.290616e+00	2.307359e+00
3.210000e-01	3.298408e+00	2.316338e+00
3.240000e-01	3.309917e+00	2.325965e+00
3.270000e-01	3.324490e+00	2.335607e+00
3.300000e-01	3.341574e+00	2.344886e+00
3.330000e-01	3.360714e+00	2.353578e+00
3.360000e-01	3.381543e+00	2.361556e+00
3.390000e-01	3.403768e+00	2.368747e+00
3.420000e-01	3.427174e+00	2.375092e+00
3.450000e-01	3.451468e+00	2.380467e+00
3.480000e-01	3.476351e+00	2.384975e+00
3.510000e-01	3.501661e+00	2.388720e+00
3.540000e-01	3.527274e+00	2.391801e+00
3.570000e-01	3.553086e+00	2.394315e+00
3.600000e-01	3.579010e+00	2.396371e+00
3.630000e-01	3.604973e+00	2.398098e+00
3.660000e-01	3.630922e+00	2.399655e+00
3.690000e-01	3.656831e+00	2.401233e+00
3.720000e-01	3.682712e+00	2.403075e+00
3.750000e-01	3.708641e+00	2.405491e+00
3.780000e-01	3.734796e+00	2.408872e+00
3.810000e-01	3.761543e+00	2.413711e+00
3.840000e-01	3.789569e+00	2.420585e+00
3.870000e-01	3.820109e+00	2.430060e+00
3.900000e-01	3.855281e+00	2.442352e+00
3.930000e-01	3.898328e+00	2.456444e+00
3.960000e-01	3.952993e+00	2.468375e+00
3.990000e-01	4.020315e+00	2.469749e+00
4.020000e-01	4.093064e+00	2.450897e+00
4.050000e-01	4.156342e+00	2.410951e+00
4.080000e-01	4.200123e+00	2.361514e+00
4.110000e-01	4.226680e+00	2.315420e+00
4.140000e-01	4.243813e+00	2.278048e+00
4.170000e-01	4.257768e+00	2.249054e+00
4.200000e-01	4.271876e+00	2.226279e+00
4.230000e-01	4.287577e+00	2.207629e+00
4.260000e-01	4.305410e+00	2.191492e+00
4.290000e-01	4.325542e+00	2.176644e+00
4.320000e-01	4.347982e+00	2.162057e+00
4.350000e-01	4.372595e+00	2.146741e+00
4.380000e-01	4.398982e+00	2.129658e+00
4.410000e-01	4.426272e+00	2.109799e+00
4.440000e-01	4.452937e+00	2.086525e+00
4.470000e-01	4.476944e+00	2.060159e+00
4.500000e-01	4.496535e+00	2.032475e+00
4.530000e-01	4.511399e+00	2.006338e+00
4.560000e-01	4.523230e+00	1.984371e+00
4.590000e-01	4.535000e+00	1.967657e+00
4.620000e-01	4.549668e+00	1.955508e+00
4.650000e-01	4.569409e+00	1.946069e+00
4.680000e-01	4.595528e+00	1.936895e+00
4.710000e-01	4.628647e+00	1.925133e+00
4.740000e-01	4.668241e+00	1.906964e+00
4.770000e-01	4.711728e+00	1.879160e+00
4.800000e-01	4.755298e+00	1.839138e+00
4.830000e-01	4.793246e+00	1.785987e+00
4.860000e-01	4.819155e+00	1.722194e+00
4.890000e-01	4.828570e+00	1.653959e+00
4.920000e-01	4.821314e+00	1.589078e+00
4.950000e-01	4.801341e+00	1.533681e+00
4.980000e-01	4.774372e+00	1.490418e+00
5.010000e-01	4.745491e+00	1.458865e+00
5.040000e-01	4.718070e+00	1.437005e+00
5.070000e-01	4.693861e+00	1.422478e+00
5.100000e-01	4.673519e+00	1.413236e+00
5.130000e-01	4.657137e+00	1.407721e+00
5.160000e-01	4.644694e+00	1.404800e+00
5.190000e-01	4.635961e+00	1.402853e+00
5.220000e-01	4.629494e+00	1.401422e+00
5.250000e-01	4.624818e+00	1.400772e+00
5.280000e-01	4.621785e+00	1.401076e+00
5.310000e-01	4.620399e+00	1.402457e+00
5.340000e-01	4.620767e+00	1.405002e+00
5.370000e-01	4.623085e+00	1.408756e+00
5.400000e-01	4.627624e+00	1.413710e+00
5.430000e-01	4.634729e+00	1.419788e+00
5.460000e-01	4.644809e+00	1.426821e+00
5.490000e-01	4.658323e+00	1.434518e+00
5.520000e-01	4.675759e+00	1.442428e+00
5.550000e-01	4.697590e+00	1.449909e+00
5.580000e-01	4.724211e+00	1.456091e+00
5.610000e-01	4.755853e+00	1.459866e+00
5.640000e-01	4.792465e+00	1.459907e+00
5.670000e-01	4.833596e+00	1.454738e+00
5.700000e-01	4.878283e+00	1.442883e+00
5.730000e-01	4.925007e+00	1.423068e+00
5.760000e-01	4.971746e+00	1.394478e+00
5.790000e-01	5.016158e+00	1.356983e+00
5.820000e-01	5.055889e+00	1.311264e+00
5.850000e-01	5.088919e+00	1.258778e+00
5.880000e-01	5.113855e+00	1.201553e+00
5.910000e-01	5.130085e+00	1.141865e+00
5.940000e-01	5.137763e+00	1.081907e+00
5.970000e-01	5.137640e+00	1.023530e+00
6.000000e-01	5.130847e+00	9.681088e-01
6.030000e-01	5.118667e+00	9.165197e-01
6.060000e-01	5.102368e+00	8.692040e-01
6.090000e-01	5.083087e+00	8.262655e-01
6.120000e-01	5.061781e+00	7.875749e-01
6.150000e-01	5.039218e+00	7.528598e-01
6.180000e-01	5.015988e+00	7.217747e-01
6.210000e-01	4.992526e+00	6.939488e-01
6.240000e-01	4.969145e+00	6.690171e-01
6.270000e-01	4.946058e+00	6.466386e-01
6.300000e-01	4.923405e+00	6.265051e-01
6.330000e-01	4.901271e+00	6.083444e-01
6.360000e-01	4.879699e+00	5.919201e-01
6.390000e-01	4.858705e+00	5.770295e-01
6.420000e-01	4.838285e+00	5.635005e-01
6.450000e-01	4.818418e+00	5.511880e-01
6.480000e-01	4.799078e+00	5.399709e-01
6.510000e-01	4.780232e+00	5.297487e-01
6.540000e-01	4.761842e+00	5.204391e-01
6.570000e-01	4.743871e+00	5.119756e-01
6.600000e-01	4.726280e+00	5.043055e-01
6.630000e-01	4.709029e+00	4.973883e-01
6.660000e-01	4.692083e+00	4.911944e-01
6.690000e-01	4.675403e+00	4.857043e-01
6.720000e-01	4.658956e+00	4.809077e-01
6.750000e-01	4.642706e+00	4.768034e-01
6.780000e-01	4.626622e+00	4.733986e-01
6.810000e-01	4.610674e+00	4.707093e-01
6.840000e-01	4.594833e+00	4.687606e-01
6.870000e-01	4.579074e+00	4.675872e-01
6.900000e-01	4.563376e+00	4.672341e-01
6.930000e-01	4.547725e+00	4.677576e-01
6.960000e-01	4.532133e+00	4.692068e-01
6.990000e-01	4.516551e+00	4.715997e-01
7.020000e-01	4.500917e+00	4.750471e-01
7.050000e-01	4.485202e+00	4.796869e-01
7.080000e-01	4.469394e+00	4.856805e-01
7.110000e-01	4.453496e+00	4.932199e-01
7.140000e-01	4.437534e+00	5.025332e-01
7.170000e-01	4.421560e+00	5.138936e-01
7.200000e-01	4.405667e+00	5.276286e-01
7.230000e-01	4.390001e+00	5.441309e-01
7.260000e-01	4.374796e+00	5.638707e-01
7.290000e-01	4.360402e+00	5.874077e-01
7.320000e-01	4.347344e+00	6.153987e-01
7.350000e-01	4.336405e+00	6.485964e-01
7.380000e-01	4.328735e+00	6.878236e-01
7.410000e-01	4.326010e+00	7.338991e-01
7.440000e-01	4.330636e+00	7.874702e-01
7.470000e-01	4.345961e+00	8.486786e-01
7.500000e-01	4.376435e+00	9.165591e-01
7.530000e-01	4.427467e+00	9.880809e-01
7.560000e-01	4.504582e+00	1.056888e+00
7.590000e-01	4.611313e+00	1.112242e+00
7.620000e-01	4.745625e+00	1.139476e+00
7.650000e-01	4.896223e+00	1.123773e+00
7.680000e-01	5.042372e+00	1.057519e+00
7.710000e-01	5.160626e+00	9.468251e-01
7.740000e-01	5.235520e+00	8.103787e-01
7.770000e-01	5.265356e+00	6.702217e-01
7.800000e-01	5.259022e+00	5.425829e-01
7.830000e-01	5.228891e+00	4.349978e-01
7.860000e-01	5.185764e+00	3.484273e-01
7.890000e-01	5.137190e+00	2.804938e-01
7.920000e-01	5.087761e+00	2.277787e-01
7.950000e-01	5.039978e+00	1.869740e-01
7.980000e-01	4.995035e+00	1.553005e-01
8.010000e-01	4.953376e+00	1.305701e-01
8.040000e-01	4.915042e+00	1.111142e-01
8.070000e-01	4.879872e+00	9.567886e-02
8.100000e-01	4.847614e+00	8.332599e-02
8.130000e-01	4.817994e+00	7.335379e-02
8.160000e-01	4.790736e+00	6.523515e-02
8.190000e-01	4.765590e+00	5.857209e-02
8.220000e-01	4.742327e+00	5.306214e-02
8.250000e-01	4.720748e+00	4.847386e-02
8.280000e-01	4.700680e+00	4.462889e-02
8.310000e-01	4.681980e+00	4.138883e-02
8.340000e-01	4.664531e+00	3.864550e-02
8.370000e-01	4.648278e+00	3.630849e-02
8.400000e-01	4.633159e+00	3.413694e-02
8.430000e-01	4.618918e+00	3.203132e-02
8.460000e-01	4.605413e+00	2.999320e-02
8.490000e-01	4.592544e+00	2.802359e-02
8.520000e-01	4.580237e+00	2.612317e-02
8.550000e-01	4.568432e+00	2.429238e-02
8.580000e-01	4.557078e+00	2.253150e-02
8.610000e-01	4.546134e+00	2.084067e-02
8.640000e-01	4.535565e+00	1.921992e-02
8.670000e-01	4.525341e+00	1.766919e-02
8.700000e-01	4.515434e+00	1.618834e-02
8.730000e-01	4.505824e+00	1.477719e-02
8.760000e-01	4.496489e+00	1.343550e-02
8.790000e-01	4.487413e+00	1.216297e-02
8.820000e-01	4.478579e+00	1.095930e-02
8.850000e-01	4.469975e+00	9.824134e-03
8.880000e-01	4.461589e+00	8.757099e-03
8.910000e-01	4.453410e+00	7.757802e-03
8.940000e-01	4.445427e+00	6.825829e-03
8.970000e-01	4.437634e+00	5.960755e-03
9.000000e-01	4.430023e+00	5.162137e-03
9.030000e-01	4.422586e+00	4.429525e-03
9.060000e-01	4.415319e+00	3.762458e-03
9.090000e-01	4.408216e+00	3.160466e-03
9.120000e-01	4.401273e+00	2.623074e-03
9.150000e-01	4.394487e+00	2.149800e-03
9.180000e-01	4.387854e+00	1.740159e-03
9.210000e-01	4.381373e+00	1.393659e-03
9.240000e-01	4.375044e+00	1.109806e-03
9.270000e-01	4.368865e+00	8.881034e-04
9.300000e-01	4.362839e+00	7.280499e-04
9.330000e-01	4.356972e+00	6.291416e-04
9.360000e-01	4.351281e+00	5.876868e-04
9.390000e-01	4.345772e+00	5.604594e-04
9.420000e-01	4.340416e+00	5.339417e-04
9.450000e-01	4.335196e+00	5.081309e-04
9.480000e-01	4.330105e+00	4.830233e-04
9.510000e-01	4.325133e+00	4.586151e-04
9.540000e-01	4.320274e+00	4.349018e-04
9.570000e-01	4.315523e+00	4.118791e-04
9.600000e-01	4.310875e+00	3.895423e-04
9.630000e-01	4.306324e+00	3.678866e-04
9.660000e-01	4.301868e+00	3.469073e-04
9.690000e-01	4.297501e+00	3.265994e-04
9.720000e-01	4.293222e+00	3.069581e-04
9.750000e-01	4.289026e+00	2.879782e-04
9.780000e-01	4.284911e+00	2.696549e-04
9.810000e-01	4.280873e+00	2.519831e-04
9.840000e-01	4.276910e+00	2.349577e-04
9.870000e-01	4.273020e+00	2.185737e-04
9.900000e-01	4.269199e+00	2.028261e-04
9.930000e-01	4.265447e+00	1.877098e-04
9.960000e-01	4.261760e+00	1.732197e-04
9.990000e-01	4.258138e+00	1.593508e-04
1.005000e+00	4.251076e+00	1.334567e-04
1.012500e+00	4.242575e+00	1.044946e-04
1.020000e+00	4.234415e+00	7.924454e-05
1.027500e+00	4.226572e+00	5.763050e-05
1.035000e+00	4.219027e+00	3.957777e-05
1.042500e+00	4.211761e+00	2.501292e-05
1.050000e+00	4.204758e+00	1.386395e-05
1.057500e+00	4.198004e+00	6.060289e-06
1.065000e+00	4.191485e+00	1.532854e-06
1.072500e+00	4.185190e+00	9.564840e-08
1.080000e+00	4.179106e+00	0
1.087500e+00	4.173224e+00	0
1.095000e+00	4.167530e+00	0
1.102500e+00	4.162017e+00	0
1.110000e+00	4.156675e+00	0
1.117500e+00	4.151496e+00	0
1.125000e+00	4.146473e+00	0
1.132500e+00	4.141597e+00	0
1.140000e+00	4.136863e+00	0
1.147500e+00	4.132264e+00	0
1.155000e+00	4.127795e+00	0
1.162500e+00	4.123450e+00	0
1.170000e+00	4.119223e+00	0
1.177500e+00	4.115111e+00	0
1.185000e+00	4.111108e+00	0
1.192500e+00	4.107210e+00	0
1.200000e+00	4.103413e+00	0
1.207500e+00	4.099713e+00	0
1.215000e+00	4.096107e+00	0
1.222500e+00	4.092591e+00	0
1.230000e+00	4.089161e+00	0
1.237500e+00	4.085815e+00	0
1.245000e+00	4.082550e+00	0
1.252500e+00	4.079363e+00	0
1.260000e+00	4.076250e+00	0
1.267500e+00	4.073210e+00	0
1.275000e+00	4.070241e+00	0
1.282500e+00	4.067339e+00	0
1.290000e+00	4.064502e+00	0
1.297500e+00	4.061729e+00	0
1.305000e+00	4.059017e+00	0
1.312500e+00	4.056365e+00	0
1.320000e+00	4.053770e+00	0
1.327500e+00	4.051231e+00	0
1.335000e+00	4.048746e+00	0
1.342500e+00	4.046314e+00	0
1.350000e+00	4.043932e+00	0
1.357500e+00	4.041600e+00	0
1.365000e+00	4.039316e+00	0
1.372500e+00	4.037078e+00	0
1.380000e+00	4.034885e+00	0
1.387500e+00	4.032736e+00	0
1.395000e+00	4.030629e+00	0
1.402500e+00	4.028564e+00	0
1.410000e+00	4.026540e+00	0
1.417500e+00	4.024554e+00	0
1.425000e+00	4.022607e+00	0
1.432500e+00	4.020696e+00	0
1.440000e+00	4.018822e+00	0
1.447500e+00	4.016983e+00	0
1.455000e+00	4.015178e+00	0
1.462500e+00	4.013406e+00	0
1.470000e+00	4.011667e+00	0
1.477500e+00	4.009959e+00	0
1.485000e+00	4.008282e+00	0
1.492500e+00	4.006635e+00	0
1.500000e+00	4.005018e+00	0
1.507500e+00	4.003429e+00	0
1.515000e+00	4.001868e+00	0
1.522500e+00	4.000334e+00	0
1.530000e+00	3.998826e+00	0
1.537500e+00	3.997344e+00	0
1.545000e+00	3.995888e+00	0
1.552500e+00	3.994456e+00	0
1.560000e+00	3.993049e+00	0
1.567500e+00	3.991665e+00	0
1.575000e+00	3.990303e+00	0
1.582500e+00	3.988965e+00	0
1.590000e+00	3.987648e+00	0
1.597500e+00	3.986352e+00	0
1.605000e+00	3.985078e+00	0
1.612500e+00	3.983824e+00	0
1.620000e+00	3.982590e+00	0
1.627500e+00	3.981376e+00	0
1.635000e+00	3.980181e+00	0
1.642500e+00	3.979004e+00	0
1.650000e+00	3.977846e+00	0
1.657500e+00	3.976706e+00	0
1.665000e+00	3.975583e+00	0
1.672500e+00	3.974478e+00	0
1.680000e+00	3.973389e+00	0
1.687500e+00	3.972317e+00	0
