Material: inorganic / WSe2 / Munkhbat-e
Optical constants. B. Munkhbat, P. Wrobel, T. J. Antosiewicz, T. O. Shegai. Optical constants of several multilayer transition metal dichalcogenides spectroscopic ellipsometry in the 300–1700 nm range: High index, anisotropy, and hyperbolicity, ACS Photonics 9, 2398–2407 (2022) (Numerical data kindly provided by Tomasz Antosiewicz)
Comments: Multilayer flakes. Out-of-plane (extraordinary ray, e). Room temperature.
Specs: {"n_absolute": true, "wavelength_vacuum": true}
wavelength (um)	n
3.000000E-01	3.836999E+00
3.030000E-01	3.808412E+00
3.060000E-01	3.780905E+00
3.090000E-01	3.754419E+00
3.120000E-01	3.728900E+00
3.150000E-01	3.704298E+00
3.180000E-01	3.680566E+00
3.210000E-01	3.657661E+00
3.240000E-01	3.635541E+00
3.270000E-01	3.614168E+00
3.300000E-01	3.593507E+00
3.330000E-01	3.573524E+00
3.360000E-01	3.554188E+00
3.390000E-01	3.535469E+00
3.420000E-01	3.517340E+00
3.450000E-01	3.499774E+00
3.480000E-01	3.482747E+00
3.510000E-01	3.466236E+00
3.540000E-01	3.450218E+00
3.570000E-01	3.434674E+00
3.600000E-01	3.419583E+00
3.630000E-01	3.404928E+00
3.660000E-01	3.390690E+00
3.690000E-01	3.376854E+00
3.720000E-01	3.363402E+00
3.750000E-01	3.350321E+00
3.780000E-01	3.337597E+00
3.810000E-01	3.325215E+00
3.840000E-01	3.313163E+00
3.870000E-01	3.301430E+00
3.900000E-01	3.290002E+00
3.930000E-01	3.278869E+00
3.960000E-01	3.268022E+00
3.990000E-01	3.257449E+00
4.020000E-01	3.247140E+00
4.050000E-01	3.237088E+00
4.080000E-01	3.227283E+00
4.110000E-01	3.217717E+00
4.140000E-01	3.208381E+00
4.170000E-01	3.199269E+00
4.200000E-01	3.190372E+00
4.230000E-01	3.181684E+00
4.260000E-01	3.173198E+00
4.290000E-01	3.164908E+00
4.320000E-01	3.156807E+00
4.350000E-01	3.148890E+00
4.380000E-01	3.141150E+00
4.410000E-01	3.133583E+00
4.440000E-01	3.126183E+00
4.470000E-01	3.118945E+00
4.500000E-01	3.111864E+00
4.530000E-01	3.104936E+00
4.560000E-01	3.098156E+00
4.590000E-01	3.091520E+00
4.620000E-01	3.085023E+00
4.650000E-01	3.078662E+00
4.680000E-01	3.072433E+00
4.710000E-01	3.066332E+00
4.740000E-01	3.060355E+00
4.770000E-01	3.054499E+00
4.800000E-01	3.048761E+00
4.830000E-01	3.043138E+00
4.860000E-01	3.037625E+00
4.890000E-01	3.032221E+00
4.920000E-01	3.026923E+00
4.950000E-01	3.021727E+00
4.980000E-01	3.016631E+00
5.010000E-01	3.011633E+00
5.040000E-01	3.006730E+00
5.070000E-01	3.001918E+00
5.100000E-01	2.997197E+00
5.130000E-01	2.992564E+00
5.160000E-01	2.988016E+00
5.190000E-01	2.983552E+00
5.220000E-01	2.979169E+00
5.250000E-01	2.974866E+00
5.280000E-01	2.970640E+00
5.310000E-01	2.966489E+00
5.340000E-01	2.962412E+00
5.370000E-01	2.958407E+00
5.400000E-01	2.954472E+00
5.430000E-01	2.950606E+00
5.460000E-01	2.946807E+00
5.490000E-01	2.943073E+00
5.520000E-01	2.939403E+00
5.550000E-01	2.935795E+00
5.580000E-01	2.932249E+00
5.610000E-01	2.928761E+00
5.640000E-01	2.925333E+00
5.670000E-01	2.921961E+00
5.700000E-01	2.918644E+00
5.730000E-01	2.915382E+00
5.760000E-01	2.912174E+00
5.790000E-01	2.909017E+00
5.820000E-01	2.905911E+00
5.850000E-01	2.902855E+00
5.880000E-01	2.899848E+00
5.910000E-01	2.896888E+00
5.940000E-01	2.893975E+00
5.970000E-01	2.891108E+00
6.000000E-01	2.888285E+00
6.030000E-01	2.885506E+00
6.060000E-01	2.882770E+00
6.090000E-01	2.880076E+00
6.120000E-01	2.877423E+00
6.150000E-01	2.874811E+00
6.180000E-01	2.872238E+00
6.210000E-01	2.869703E+00
6.240000E-01	2.867206E+00
6.270000E-01	2.864746E+00
6.300000E-01	2.862323E+00
6.330000E-01	2.859936E+00
6.360000E-01	2.857583E+00
6.390000E-01	2.855264E+00
6.420000E-01	2.852979E+00
6.450000E-01	2.850727E+00
6.480000E-01	2.848508E+00
6.510000E-01	2.846320E+00
6.540000E-01	2.844163E+00
6.570000E-01	2.842036E+00
6.600000E-01	2.839939E+00
6.630000E-01	2.837872E+00
6.660000E-01	2.835834E+00
6.690000E-01	2.833823E+00
6.720000E-01	2.831841E+00
6.750000E-01	2.829885E+00
6.780000E-01	2.827957E+00
6.810000E-01	2.826054E+00
6.840000E-01	2.824177E+00
6.870000E-01	2.822326E+00
6.900000E-01	2.820499E+00
6.930000E-01	2.818697E+00
6.960000E-01	2.816919E+00
6.990000E-01	2.815164E+00
7.020000E-01	2.813432E+00
7.050000E-01	2.811723E+00
7.080000E-01	2.810036E+00
7.110000E-01	2.808371E+00
7.140000E-01	2.806728E+00
7.170000E-01	2.805106E+00
7.200000E-01	2.803504E+00
7.230000E-01	2.801923E+00
7.260000E-01	2.800362E+00
7.290000E-01	2.798821E+00
7.320000E-01	2.797299E+00
7.350000E-01	2.795796E+00
7.380000E-01	2.794312E+00
7.410000E-01	2.792847E+00
7.440000E-01	2.791399E+00
7.470000E-01	2.789970E+00
7.500000E-01	2.788558E+00
7.530000E-01	2.787163E+00
7.560000E-01	2.785785E+00
7.590000E-01	2.784424E+00
7.620000E-01	2.783079E+00
7.650000E-01	2.781750E+00
7.680000E-01	2.780438E+00
7.710000E-01	2.779141E+00
7.740000E-01	2.777859E+00
7.770000E-01	2.776592E+00
7.800000E-01	2.775341E+00
7.830000E-01	2.774104E+00
7.860000E-01	2.772881E+00
7.890000E-01	2.771673E+00
7.920000E-01	2.770479E+00
7.950000E-01	2.769298E+00
7.980000E-01	2.768131E+00
8.010000E-01	2.766978E+00
8.040000E-01	2.765837E+00
8.070000E-01	2.764710E+00
8.100000E-01	2.763595E+00
8.130000E-01	2.762493E+00
8.160000E-01	2.761403E+00
8.190000E-01	2.760326E+00
8.220000E-01	2.759260E+00
8.250000E-01	2.758207E+00
8.280000E-01	2.757165E+00
8.310000E-01	2.756134E+00
8.340000E-01	2.755115E+00
8.370000E-01	2.754107E+00
8.400000E-01	2.753109E+00
8.430000E-01	2.752123E+00
8.460000E-01	2.751147E+00
8.490000E-01	2.750182E+00
8.520000E-01	2.749227E+00
8.550000E-01	2.748283E+00
8.580000E-01	2.747348E+00
8.610000E-01	2.746424E+00
8.640000E-01	2.745509E+00
8.670000E-01	2.744604E+00
8.700000E-01	2.743708E+00
8.730000E-01	2.742822E+00
8.760000E-01	2.741945E+00
8.790000E-01	2.741077E+00
8.820000E-01	2.740218E+00
8.850000E-01	2.739368E+00
8.880000E-01	2.738527E+00
8.910000E-01	2.737694E+00
8.940000E-01	2.736870E+00
8.970000E-01	2.736054E+00
9.000000E-01	2.735246E+00
9.030000E-01	2.734447E+00
9.060000E-01	2.733656E+00
9.090000E-01	2.732872E+00
9.120000E-01	2.732097E+00
9.150000E-01	2.731329E+00
9.180000E-01	2.730569E+00
9.210000E-01	2.729816E+00
9.240000E-01	2.729071E+00
9.270000E-01	2.728333E+00
9.300000E-01	2.727602E+00
9.330000E-01	2.726879E+00
9.360000E-01	2.726162E+00
9.390000E-01	2.725453E+00
9.420000E-01	2.724750E+00
9.450000E-01	2.724054E+00
9.480000E-01	2.723365E+00
9.510000E-01	2.722683E+00
9.540000E-01	2.722007E+00
9.570000E-01	2.721337E+00
9.600000E-01	2.720674E+00
9.630000E-01	2.720017E+00
9.660000E-01	2.719366E+00
9.690000E-01	2.718721E+00
9.720000E-01	2.718083E+00
9.750000E-01	2.717450E+00
9.780000E-01	2.716823E+00
9.810000E-01	2.716202E+00
9.840000E-01	2.715587E+00
9.870000E-01	2.714977E+00
9.900000E-01	2.714373E+00
9.930000E-01	2.713775E+00
9.960000E-01	2.713182E+00
9.990000E-01	2.712595E+00
1.005000E+00	2.711435E+00
1.012500E+00	2.710016E+00
1.020000E+00	2.708628E+00
1.027500E+00	2.707270E+00
1.035000E+00	2.705942E+00
1.042500E+00	2.704644E+00
1.050000E+00	2.703373E+00
1.057500E+00	2.702129E+00
1.065000E+00	2.700912E+00
1.072500E+00	2.699721E+00
1.080000E+00	2.698554E+00
1.087500E+00	2.697412E+00
1.095000E+00	2.696294E+00
1.102500E+00	2.695198E+00
1.110000E+00	2.694125E+00
1.117500E+00	2.693074E+00
1.125000E+00	2.692044E+00
1.132500E+00	2.691034E+00
1.140000E+00	2.690045E+00
1.147500E+00	2.689075E+00
1.155000E+00	2.688124E+00
1.162500E+00	2.687191E+00
1.170000E+00	2.686277E+00
1.177500E+00	2.685380E+00
1.185000E+00	2.684500E+00
1.192500E+00	2.683637E+00
1.200000E+00	2.682790E+00
1.207500E+00	2.681959E+00
1.215000E+00	2.681143E+00
1.222500E+00	2.680343E+00
1.230000E+00	2.679557E+00
1.237500E+00	2.678786E+00
1.245000E+00	2.678029E+00
1.252500E+00	2.677285E+00
1.260000E+00	2.676555E+00
1.267500E+00	2.675837E+00
1.275000E+00	2.675133E+00
1.282500E+00	2.674441E+00
1.290000E+00	2.673760E+00
1.297500E+00	2.673092E+00
1.305000E+00	2.672436E+00
1.312500E+00	2.671790E+00
1.320000E+00	2.671156E+00
1.327500E+00	2.670532E+00
1.335000E+00	2.669920E+00
1.342500E+00	2.669317E+00
1.350000E+00	2.668724E+00
1.357500E+00	2.668142E+00
1.365000E+00	2.667569E+00
1.372500E+00	2.667005E+00
1.380000E+00	2.666451E+00
1.387500E+00	2.665905E+00
1.395000E+00	2.665369E+00
1.402500E+00	2.664841E+00
1.410000E+00	2.664321E+00
1.417500E+00	2.663810E+00
1.425000E+00	2.663307E+00
1.432500E+00	2.662812E+00
1.440000E+00	2.662324E+00
1.447500E+00	2.661844E+00
1.455000E+00	2.661372E+00
1.462500E+00	2.660907E+00
1.470000E+00	2.660449E+00
1.477500E+00	2.659998E+00
1.485000E+00	2.659554E+00
1.492500E+00	2.659117E+00
1.500000E+00	2.658686E+00
1.507500E+00	2.658261E+00
1.515000E+00	2.657843E+00
1.522500E+00	2.657432E+00
1.530000E+00	2.657026E+00
1.537500E+00	2.656626E+00
1.545000E+00	2.656232E+00
1.552500E+00	2.655844E+00
1.560000E+00	2.655461E+00
1.567500E+00	2.655084E+00
1.575000E+00	2.654712E+00
1.582500E+00	2.654346E+00
1.590000E+00	2.653984E+00
1.597500E+00	2.653628E+00
1.605000E+00	2.653277E+00
1.612500E+00	2.652931E+00
1.620000E+00	2.652590E+00
1.627500E+00	2.652253E+00
1.635000E+00	2.651921E+00
1.642500E+00	2.651593E+00
1.650000E+00	2.651270E+00
1.657500E+00	2.650952E+00
1.665000E+00	2.650637E+00
1.672500E+00	2.650327E+00
1.680000E+00	2.650021E+00
1.687500E+00	2.649720E+00
