Material: main / Fe2O3 / Querry-e
Optical constants. M. R. Querry. Optical constants, Contractor Report CRDC-CR-85034 (1985)
Comments: Î±-Fe2O3 (Hematite). Extraordinary ray (e).
wavelength (um)	n	k
0.2100	1.108	1.048
0.2300	1.517	1.145
0.2500	1.733	1.149
0.2700	1.917	1.133
0.2900	2.049	1.076
0.3100	2.134	1.041
0.3300	2.218	0.979
0.3500	2.206	0.951
0.3700	2.243	1.034
0.3900	2.387	1.097
0.4100	2.560	1.075
0.4300	2.708	0.993
0.4500	2.809	0.873
0.4700	2.858	0.758
0.4900	2.890	0.654
0.5100	2.887	0.560
0.5300	2.885	0.512
0.5500	2.927	0.460
0.5700	2.963	0.351
0.5900	2.931	0.229
0.6100	2.862	0.156
0.6300	2.800	0.119
0.6500	2.753	0.103
0.6700	2.719	0.089
0.6900	2.688	0.078
0.7100	2.662	0.072
0.7300	2.641	0.066
0.7500	2.621	0.061
0.7700	2.604	0.059
0.7900	2.589	0.057
0.8100	2.575	0.057
0.8300	2.566	0.059
0.8500	2.559	0.059
0.8700	2.552	0.058
0.8900	2.547	0.056
0.9100	2.541	0.053
0.9300	2.535	0.052
0.9500	2.531	0.051
0.9700	2.527	0.048
0.9900	2.522	0.045
1.0100	2.517	0.042
1.0300	2.512	0.040
1.0500	2.507	0.039
1.0700	2.502	0.038
1.0900	2.498	0.037
1.1100	2.494	0.036
1.1300	2.491	0.036
1.1500	2.488	0.034
1.1700	2.483	0.033
1.1900	2.480	0.034
1.2100	2.477	0.034
1.2300	2.474	0.034
1.2500	2.473	0.033
1.2700	2.470	0.032
1.2900	2.466	0.032
1.3100	2.464	0.033
1.3300	2.463	0.033
1.3500	2.460	0.033
1.3700	2.458	0.033
1.3900	2.456	0.034
1.4100	2.454	0.034
1.4300	2.453	0.035
1.4500	2.452	0.034
1.4700	2.450	0.035
1.4900	2.449	0.035
1.5100	2.448	0.036
1.5300	2.446	0.036
1.5500	2.446	0.037
1.5700	2.445	0.036
1.5900	2.443	0.036
1.6100	2.442	0.038
1.6300	2.442	0.038
1.6500	2.441	0.038
1.6700	2.441	0.038
1.6900	2.440	0.038
1.7100	2.439	0.038
1.7300	2.438	0.038
1.7500	2.438	0.038
1.7700	2.437	0.039
1.7900	2.437	0.037
1.8100	2.435	0.037
1.8300	2.433	0.038
1.8500	2.432	0.039
1.8700	2.431	0.042
1.8900	2.433	0.043
1.9100	2.434	0.042
1.9400	2.434	0.042
1.9500	2.434	0.042
1.9700	2.433	0.041
1.9900	2.432	0.041
2.0100	2.432	0.041
2.0300	2.432	0.042
2.0500	2.432	0.042
2.0700	2.431	0.042
2.0900	2.431	0.041
2.1100	2.431	0.041
2.1300	2.430	0.042
2.1500	2.430	0.041
2.1700	2.430	0.042
2.1900	2.430	0.042
2.2100	2.430	0.042
2.2300	2.430	0.042
2.2500	2.430	0.042
2.2700	2.429	0.041
2.2900	2.429	0.041
2.3100	2.429	0.041
2.3300	2.429	0.041
2.3500	2.429	0.041
2.3700	2.428	0.040
2.3900	2.428	0.041
2.4100	2.428	0.040
2.4300	2.428	0.040
2.4500	2.428	0.040
2.4700	2.428	0.039
2.4900	2.427	0.038
2.5063	2.426	0.038
2.5189	2.425	0.037
2.5316	2.425	0.037
2.5445	2.425	0.037
2.5575	2.423	0.036
2.5707	2.422	0.038
2.5840	2.422	0.038
2.5974	2.423	0.038
2.6110	2.422	0.037
2.6247	2.421	0.038
2.6385	2.421	0.039
2.6525	2.421	0.039
2.6667	2.420	0.038
2.6810	2.420	0.039
2.6954	2.420	0.039
2.7100	2.419	0.038
2.7248	2.418	0.039
2.7397	2.418	0.040
2.7548	2.419	0.041
2.7701	2.420	0.040
2.7855	2.419	0.040
2.8011	2.419	0.039
2.8169	2.419	0.039
2.8329	2.419	0.039
2.8490	2.418	0.039
2.8653	2.418	0.039
2.8818	2.418	0.038
2.8986	2.417	0.038
2.9155	2.416	0.038
2.9326	2.416	0.038
2.9499	2.416	0.038
2.9674	2.414	0.037
2.9851	2.412	0.038
3.0030	2.413	0.039
3.0211	2.412	0.039
3.0395	2.411	0.039
3.0581	2.410	0.041
3.0769	2.410	0.042
3.0960	2.411	0.042
3.1153	2.411	0.043
3.1348	2.412	0.043
3.1546	2.413	0.042
3.1746	2.412	0.040
3.1949	2.411	0.040
3.2154	2.410	0.041
3.2362	2.410	0.041
3.2573	2.410	0.041
3.2787	2.411	0.041
3.3003	2.410	0.039
3.3223	2.408	0.038
3.3445	2.406	0.039
3.3670	2.406	0.040
3.3898	2.405	0.039
3.4130	2.404	0.040
3.4364	2.403	0.039
3.4602	2.401	0.040
3.4843	2.401	0.041
3.5088	2.400	0.042
3.5336	2.399	0.043
3.5587	2.399	0.045
3.5842	2.399	0.046
3.6101	2.400	0.046
3.6364	2.400	0.046
3.6630	2.400	0.045
3.6900	2.399	0.044
3.7175	2.397	0.045
3.7453	2.396	0.046
3.7736	2.396	0.047
3.8023	2.396	0.048
3.8314	2.396	0.048
3.8610	2.395	0.049
3.8911	2.395	0.049
3.9216	2.394	0.050
3.9526	2.395	0.051
3.9841	2.396	0.051
4.0161	2.396	0.050
4.0486	2.395	0.050
4.0816	2.394	0.050
4.1152	2.393	0.050
4.1494	2.393	0.050
4.1667	2.393	0.050
4.2017	2.392	0.050
4.2373	2.391	0.050
4.2735	2.390	0.051
4.3103	2.390	0.051
4.3478	2.389	0.051
4.3860	2.389	0.051
4.4248	2.388	0.051
4.4643	2.387	0.052
4.5045	2.386	0.052
4.5455	2.385	0.053
4.5872	2.385	0.053
4.6296	2.384	0.054
4.6729	2.383	0.054
4.7170	2.383	0.055
4.7619	2.383	0.055
4.8077	2.382	0.055
4.8544	2.382	0.055
4.9020	2.381	0.055
4.9505	2.380	0.055
5.0000	2.380	0.056
5.0505	2.379	0.055
5.1020	2.379	0.055
5.1546	2.378	0.055
5.2083	2.377	0.054
5.2632	2.376	0.053
5.3191	2.374	0.053
5.3763	2.372	0.053
5.4348	2.371	0.053
5.4945	2.370	0.052
5.5556	2.368	0.051
5.6180	2.366	0.051
5.6818	2.363	0.050
5.7471	2.362	0.051
5.8140	2.360	0.050
5.8824	2.357	0.050
5.9524	2.355	0.050
6.0241	2.352	0.050
6.0976	2.350	0.050
6.1728	2.347	0.050
6.2500	2.344	0.051
6.3291	2.342	0.051
6.4103	2.339	0.051
6.4935	2.337	0.050
6.5789	2.334	0.049
6.6667	2.331	0.048
6.7568	2.327	0.048
6.8493	2.324	0.047
6.9444	2.319	0.045
7.0423	2.314	0.045
7.1429	2.310	0.045
7.2464	2.305	0.044
7.3529	2.299	0.043
7.4627	2.293	0.042
7.5758	2.286	0.042
7.6923	2.280	0.041
7.8125	2.272	0.041
7.9365	2.266	0.041
8.0645	2.257	0.040
8.1967	2.249	0.040
8.3333	2.240	0.040
8.4746	2.231	0.040
8.6207	2.221	0.040
8.7719	2.211	0.039
8.9286	2.199	0.038
9.0909	2.187	0.037
9.2593	2.174	0.035
9.4340	2.159	0.031
9.6154	2.135	0.028
9.8039	2.115	0.035
10.0000	2.095	0.033
10.2041	2.077	0.035
10.4167	2.048	0.034
10.6383	2.018	0.044
10.8696	1.994	0.046
11.1111	1.960	0.049
11.3636	1.934	0.054
11.6279	1.890	0.054
11.9048	1.848	0.061
12.1951	1.797	0.058
12.5000	1.731	0.067
12.8205	1.665	0.076
13.1579	1.576	0.084
13.5135	1.467	0.107
13.8889	1.345	0.138
14.2857	1.182	0.171
14.7059	0.959	0.256
15.1515	0.550	0.419
15.6250	0.319	0.980
16.1290	0.329	1.477
16.6667	0.360	1.990
17.2414	0.526	2.661
17.8571	0.989	3.531
18.5185	2.575	4.452
19.2308	4.909	2.831
20.0000	3.969	1.089
20.8333	3.336	0.700
21.7391	2.787	0.429
22.7273	2.220	0.378
23.3095	1.459	0.483
25.0000	0.599	1.275
26.3158	0.459	2.315
27.7778	0.572	3.359
29.4118	0.706	4.534
31.2500	1.513	6.919
33.3333	7.255	9.384
35.7143	9.429	2.080
38.4615	7.110	0.636
41.6667	6.062	0.294
45.4545	5.507	0.218
50.0000	5.148	0.175
55.5556	4.916	0.140
