Material: main / Fe2O3 / Querry-o
Optical constants. M. R. Querry. Optical constants, Contractor Report CRDC-CR-85034 (1985)
Comments: Î±-Fe2O3 (Hematite). Ordinary ray (o).
wavelength (um)	n	k
0.2100	1.202	1.207
0.2300	1.659	1.309
0.2500	1.899	1.315
0.2700	2.110	1.300
0.2900	2.261	1.233
0.3100	2.357	1.195
0.3300	2.454	1.122
0.3500	2.430	1.093
0.3700	2.470	1.202
0.3900	2.645	1.291
0.4100	2.863	1.271
0.4300	3.052	1.173
0.4500	3.181	1.020
0.4700	3.242	0.874
0.4900	3.280	0.741
0.5100	3.272	0.622
0.5300	3.266	0.564
0.5500	3.318	0.498
0.5700	3.361	0.357
0.5900	3.312	0.202
0.6100	3.218	0.114
0.6300	3.135	0.073
0.6500	3.074	0.057
0.6700	3.029	0.043
0.6900	2.990	0.034
0.7100	2.956	0.028
0.7300	2.929	0.024
0.7500	2.903	0.021
0.7700	2.882	0.020
0.7900	2.862	0.019
0.8100	2.845	0.022
0.8300	2.833	0.025
0.8500	2.824	0.027
0.8700	2.816	0.026
0.8900	2.809	0.026
0.9100	2.801	0.024
0.9300	2.794	0.023
0.9500	2.789	0.022
0.9700	2.784	0.020
0.9900	2.778	0.017
1.0100	2.771	0.015
1.0300	2.765	0.013
1.0500	2.759	0.011
1.0700	2.753	0.011
1.0900	2.747	0.011
1.1100	2.742	0.011
1.1300	2.739	0.011
1.1500	2.734	0.010
1.1700	2.729	0.009
1.1900	2.725	0.010
1.2100	2.721	0.011
1.2300	2.718	0.011
1.2500	2.715	0.011
1.2700	2.712	0.010
1.2900	2.708	0.011
1.3100	2.705	0.013
1.3300	2.703	0.013
1.3500	2.700	0.013
1.3700	2.697	0.013
1.3900	2.695	0.015
1.4100	2.693	0.016
1.4300	2.692	0.017
1.4500	2.690	0.017
1.4700	2.687	0.017
1.4900	2.686	0.018
1.5100	2.684	0.019
1.5300	2.683	0.020
1.5500	2.682	0.021
1.5700	2.681	0.020
1.5900	2.679	0.021
1.6100	2.677	0.023
1.6300	2.677	0.024
1.6500	2.677	0.024
1.6700	2.676	0.024
1.6900	2.675	0.024
1.7100	2.674	0.024
1.7300	2.673	0.025
1.7500	2.672	0.025
1.7700	2.671	0.026
1.7900	2.671	0.025
1.8100	2.669	0.025
1.8300	2.667	0.026
1.8500	2.665	0.027
1.8700	2.664	0.031
1.8900	2.666	0.032
1.9100	2.667	0.032
1.9300	2.667	0.032
1.9500	2.667	0.031
1.9700	2.666	0.031
1.9900	2.665	0.031
2.0100	2.665	0.032
2.0300	2.665	0.032
2.0500	2.664	0.032
2.0700	2.664	0.033
2.0900	2.664	0.033
2.1100	2.664	0.033
2.1300	2.663	0.033
2.1500	2.663	0.033
2.1700	2.663	0.034
2.1900	2.662	0.034
2.2100	2.662	0.034
2.2300	2.662	0.034
2.2500	2.662	0.034
2.2700	2.662	0.034
2.2900	2.662	0.034
2.3100	2.661	0.034
2.3300	2.661	0.034
2.3500	2.661	0.034
2.3700	2.660	0.034
2.3900	2.660	0.035
2.4100	2.660	0.034
2.4300	2.659	0.035
2.4500	2.660	0.035
2.4700	2.659	0.034
2.4900	2.658	0.033
2.5063	2.658	0.034
2.5189	2.657	0.034
2.5316	2.657	0.035
2.5445	2.658	0.036
2.5575	2.658	0.036
2.5707	2.659	0.036
2.5840	2.659	0.035
2.5974	2.659	0.035
2.6110	2.659	0.034
2.6247	2.659	0.034
2.6385	2.658	0.033
2.6525	2.657	0.034
2.6667	2.659	0.034
2.6810	2.658	0.032
2.6954	2.657	0.032
2.7100	2.657	0.032
2.7248	2.657	0.032
2.7397	2.656	0.032
2.7548	2.655	0.032
2.7701	2.656	0.032
2.7855	2.655	0.031
2.8011	2.655	0.031
2.8169	2.654	0.031
2.8329	2.653	0.031
2.8490	2.653	0.031
2.8653	2.652	0.031
2.8818	2.652	0.031
2.8986	2.651	0.031
2.9155	2.651	0.031
2.9326	2.650	0.031
2.9499	2.650	0.032
2.9674	2.650	0.032
2.9851	2.650	0.032
3.0030	2.650	0.032
3.0211	2.649	0.031
3.0395	2.648	0.031
3.0581	2.648	0.031
3.0769	2.648	0.031
3.0960	2.647	0.030
3.1153	2.646	0.030
3.1348	2.646	0.031
3.1546	2.645	0.031
3.1746	2.644	0.031
3.1949	2.644	0.031
3.2154	2.643	0.031
3.2362	2.643	0.032
3.2573	2.643	0.031
3.2787	2.642	0.031
3.3003	2.642	0.031
3.3223	2.640	0.032
3.3445	2.641	0.032
3.3670	2.641	0.032
3.3898	2.641	0.032
3.4130	2.641	0.032
3.4364	2.640	0.031
3.4602	2.639	0.031
3.4843	2.639	0.030
3.5088	2.638	0.030
3.5336	2.637	0.030
3.5587	2.636	0.030
3.5842	2.635	0.030
3.6101	2.635	0.031
3.6364	2.634	0.030
3.6630	2.634	0.030
3.6900	2.633	0.030
3.7175	2.632	0.030
3.7453	2.631	0.030
3.7736	2.630	0.029
3.8023	2.629	0.029
3.8314	2.628	0.030
3.8610	2.627	0.030
3.6911	2.627	0.030
3.9216	2.625	0.030
3.9526	2.625	0.029
3.9841	2.624	0.029
4.0161	2.623	0.029
4.0486	2.622	0.029
4.0816	2.620	0.028
4.1152	2.619	0.029
4.1494	2.618	0.028
4.1841	2.615	0.029
4.2194	2.616	0.030
4.2553	2.615	0.029
4.2918	2.613	0.028
4.3290	2.611	0.028
4.3668	2.609	0.028
4.4053	2.608	0.029
4.4444	2.607	0.030
4.4843	2.605	0.030
4.5249	2.604	0.030
4.5662	2.603	0.030
4.6083	2.602	0.030
4.6512	2.600	0.030
4.6948	2.598	0.030
4.7393	2.597	0.030
4.7847	2.595	0.030
4.8309	2.593	0.030
4.8780	2.592	0.030
4.9261	2.590	0.031
4.9751	2.588	0.031
5.0251	2.586	0.031
5.0761	2.584	0.031
5.1282	2.582	0.031
5.1813	2.580	0.031
5.2356	2.578	0.031
5.2910	2.575	0.031
5.3476	2.573	0.031
5.4054	2.570	0.031
5.4645	2.568	0.031
5.5249	2.565	0.032
5.5866	2.562	0.032
5.6497	2.560	0.032
5.7143	2.557	0.032
5.7803	2.554	0.031
5.8480	2.551	0.032
5.9172	2.547	0.031
5.9880	2.543	0.032
6.0606	2.541	0.032
6.1350	2.536	0.031
6.2112	2.532	0.031
6.2893	2.527	0.032
6.3694	2.524	0.033
6.4516	2.520	0.033
6.5359	2.516	0.033
6.6225	2.511	0.032
6.7114	2.505	0.032
6.8027	2.500	0.032
6.8966	2.494	0.031
6.9930	2.488	0.031
7.0922	2.481	0.030
7.1942	2.474	0.030
7.2993	2.466	0.030
7.4074	2.457	0.029
7.5188	2.447	0.031
7.6336	2.438	0.031
7.7519	2.428	0.033
7.8740	2.418	0.035
8.0000	2.409	0.036
8.1301	2.398	0.037
8.2645	2.386	0.039
8.4034	2.375	0.040
8.5470	2.363	0.042
8.6957	2.349	0.044
8.8496	2.337	0.044
9.0090	2.321	0.044
9.1743	2.303	0.046
9.3458	2.284	0.048
9.5238	2.265	0.052
9.7087	2.246	0.055
9.9010	2.224	0.055
10.1010	2.199	0.057
10.3093	2.170	0.060
10.5263	2.141	0.066
10.7527	2.110	0.072
10.9890	2.081	0.079
11.2360	2.045	0.077
11.4943	1.999	0.077
11.7647	1.949	0.081
12.0482	1.891	0.085
12.3457	1.823	0.093
12.6582	1.745	0.102
12.9870	1.653	0.111
13.3333	1.536	0.132
13.6986	1.399	0.167
14.0845	1.238	0.221
14.4928	1.037	0.297
14.9254	0.754	0.440
15.3846	0.478	0.779
15.8730	0.361	1.201
16.3934	0.307	1.624
16.9492	0.318	2.096
17.5439	0.395	2.669
18.1818	0.787	3.436
18.8679	2.007	3.911
19.6078	2.673	2.292
20.4082	1.105	2.553
21.2766	1.015	4.068
22.2222	2.230	6.303
23.2558	7.431	4.077
24.3902	4.966	0.982
25.6410	3.262	0.656
27.0270	1.554	1.390
28.5714	0.808	3.245
30.3030	1.005	5.382
32.2581	2.681	9.062
34.4828	12.585	8.306
37.0370	9.433	0.782
40.0000	7.290	0.132
43.4783	7.022	0.668
47.6190	6.359	-0.074
52.6316	5.844	-0.148
58.8235	5.509	-0.134
66.6667	5.285	-0.113
76.9231	5.124	-0.094
90.9091	5.005	-0.076
