Material: inorganic / PdSe2 / Ermolaev
Optical constants. G. Ermolaev, K. Voronin, D.G. Baranov, V. Kravets, G. Tselikov, Y. Stebunov, D. Yakubovsky, S. Novikov, A. Vyshnevyy, A. Mazitov, I. Kruglov, S. Zhukov, R. Romanov, A. M. Markeev, A. Arsenin, K. S. Novoselov, A.N. Grigorenko, V. S. Volkov. Topological phase singularities in atomically thin high-refractive-index materials, Nat. Commun. 13, 2049 (2022) (Numerical data kindly provided by Georgy Ermolaev)
Comments: Broadband optical constants of 4.5 nm PdSe2 thin film in the spectral range 200â€“10000 nm.
wavelength (um)	n	k
0.200	1.53775	1.18581
0.225	1.56279	1.30226
0.250	1.86411	1.40288
0.275	1.70398	1.57829
0.300	1.86084	1.88010
0.325	2.23021	2.02602
0.350	2.46756	1.92561
0.375	2.55912	1.92627
0.400	2.72954	1.94848
0.425	2.85010	1.89186
0.450	2.89434	1.89348
0.475	2.96625	1.96990
0.500	3.10379	2.06585
0.525	3.30079	2.13761
0.550	3.53628	2.15895
0.575	3.78378	2.11787
0.600	4.01663	2.01571
0.625	4.21366	1.86513
0.650	4.36342	1.68506
0.675	4.46458	1.49458
0.700	4.52287	1.30846
0.725	4.54720	1.13584
0.750	4.54664	0.98101
0.775	4.52891	0.84496
0.800	4.49998	0.72683
0.825	4.46414	0.62488
0.850	4.42441	0.53711
0.875	4.38283	0.46157
0.900	4.34073	0.39650
0.925	4.29900	0.34035
0.950	4.25818	0.29182
0.975	4.21861	0.24981
1.000	4.18046	0.21342
1.025	4.14385	0.18187
1.050	4.10880	0.15455
1.075	4.07531	0.13089
1.100	4.04335	0.11047
1.125	4.01288	0.09290
1.150	3.98387	0.07788
1.175	3.95625	0.06513
1.200	3.92998	0.05441
1.225	3.90504	0.04554
1.250	3.88136	0.03834
1.275	3.85892	0.03265
1.300	3.83772	0.02836
1.325	3.81773	0.02534
1.350	3.79895	0.02349
1.375	3.78144	0.02273
1.400	3.76526	0.02298
1.425	3.75072	0.02402
1.450	3.73767	0.02518
1.475	3.72569	0.02636
1.500	3.71460	0.02757
1.525	3.70427	0.02880
1.550	3.69459	0.03005
1.575	3.68551	0.03133
1.600	3.67694	0.03263
1.625	3.66885	0.03395
1.650	3.66118	0.03529
1.675	3.65391	0.03666
1.700	3.64698	0.03805
1.725	3.64039	0.03946
1.750	3.63409	0.04089
1.775	3.62808	0.04234
1.800	3.62232	0.04382
1.825	3.61680	0.04531
1.850	3.61150	0.04682
1.875	3.60641	0.04835
1.900	3.60152	0.04991
1.925	3.59681	0.05148
1.950	3.59227	0.05307
1.975	3.58789	0.05467
2.000	3.58366	0.05630
2.025	3.57958	0.05794
2.050	3.57563	0.05960
2.075	3.57181	0.06127
2.100	3.56811	0.06297
2.125	3.56453	0.06467
2.150	3.56106	0.06640
2.175	3.55768	0.06813
2.200	3.55442	0.06989
2.225	3.55124	0.07165
2.250	3.54815	0.07343
2.275	3.54515	0.07523
2.300	3.54223	0.07704
2.325	3.53940	0.07886
2.350	3.53663	0.08069
2.375	3.53395	0.08254
2.400	3.53132	0.08440
2.425	3.52877	0.08627
2.450	3.52628	0.08815
2.475	3.52385	0.09004
2.500	3.52149	0.09194
2.525	3.51918	0.09386
2.550	3.51692	0.09578
2.575	3.51472	0.09771
2.600	3.51257	0.09966
2.625	3.51047	0.10161
2.650	3.50842	0.10357
2.675	3.50642	0.10554
2.700	3.50445	0.10752
2.725	3.50254	0.10951
2.750	3.50067	0.11150
2.775	3.49884	0.11351
2.800	3.49705	0.11552
2.825	3.49529	0.11754
2.850	3.49358	0.11956
2.875	3.49190	0.12159
2.900	3.49026	0.12363
2.925	3.48865	0.12568
2.950	3.48707	0.12773
2.975	3.48553	0.12979
3.000	3.48402	0.13185
3.025	3.48254	0.13392
3.050	3.48109	0.13599
3.075	3.47967	0.13807
3.100	3.47828	0.14015
3.125	3.47692	0.14224
3.150	3.47558	0.14434
3.175	3.47427	0.14643
3.200	3.47299	0.14854
3.225	3.47174	0.15064
3.250	3.47050	0.15275
3.275	3.46929	0.15487
3.300	3.46811	0.15699
3.325	3.46695	0.15911
3.350	3.46581	0.16123
3.375	3.46469	0.16336
3.400	3.46360	0.16549
3.425	3.46252	0.16763
3.450	3.46147	0.16977
3.475	3.46044	0.17191
3.500	3.45943	0.17405
3.525	3.45844	0.17619
3.550	3.45746	0.17834
3.575	3.45651	0.18049
3.600	3.45557	0.18264
3.625	3.45465	0.18480
3.650	3.45375	0.18695
3.675	3.45287	0.18911
3.700	3.45200	0.19127
3.725	3.45115	0.19343
3.750	3.45032	0.19559
3.775	3.44950	0.19776
3.800	3.44870	0.19992
3.825	3.44791	0.20209
3.850	3.44714	0.20426
3.875	3.44639	0.20643
3.900	3.44564	0.20860
3.925	3.44492	0.21077
3.950	3.44421	0.21294
3.975	3.44351	0.21511
4.000	3.44282	0.21729
4.025	3.44215	0.21946
4.050	3.44149	0.22164
4.075	3.44084	0.22381
4.100	3.44021	0.22599
4.125	3.43959	0.22817
4.150	3.43898	0.23034
4.175	3.43838	0.23252
4.200	3.43780	0.23470
4.225	3.43722	0.23688
4.250	3.43666	0.23905
4.275	3.43611	0.24123
4.300	3.43557	0.24341
4.325	3.43504	0.24559
4.350	3.43452	0.24777
4.375	3.43402	0.24994
4.400	3.43352	0.25212
4.425	3.43303	0.25430
4.450	3.43256	0.25648
4.475	3.43209	0.25865
4.500	3.43164	0.26083
4.525	3.43119	0.26301
4.550	3.43075	0.26518
4.575	3.43032	0.26736
4.600	3.42990	0.26953
4.625	3.42949	0.27171
4.650	3.42909	0.27388
4.675	3.42870	0.27606
4.700	3.42832	0.27823
4.725	3.42794	0.28040
4.750	3.42757	0.28257
4.775	3.42722	0.28475
4.800	3.42687	0.28692
4.825	3.42652	0.28909
4.850	3.42619	0.29125
4.875	3.42586	0.29342
4.900	3.42555	0.29559
4.925	3.42523	0.29776
4.950	3.42493	0.29993
4.975	3.42464	0.30209
5.000	3.42435	0.30426
5.025	3.42407	0.30642
5.050	3.42379	0.30858
5.075	3.42352	0.31074
5.100	3.42326	0.31290
5.125	3.42301	0.31506
5.150	3.42276	0.31722
5.175	3.42252	0.31938
5.200	3.42229	0.32154
5.225	3.42206	0.32370
5.250	3.42184	0.32585
5.275	3.42163	0.32800
5.300	3.42142	0.33016
5.325	3.42122	0.33231
5.350	3.42102	0.33446
5.375	3.42083	0.33661
5.400	3.42065	0.33876
5.425	3.42047	0.34091
5.450	3.42030	0.34306
5.475	3.42013	0.34520
5.500	3.41997	0.34735
5.525	3.41982	0.34949
5.550	3.41967	0.35163
5.575	3.41952	0.35377
5.600	3.41939	0.35591
5.625	3.41925	0.35805
5.650	3.41912	0.36019
5.675	3.41900	0.36232
5.700	3.41888	0.36446
5.725	3.41877	0.36659
5.750	3.41866	0.36873
5.775	3.41856	0.37086
5.800	3.41846	0.37299
5.825	3.41837	0.37512
5.850	3.41828	0.37725
5.875	3.41820	0.37937
5.900	3.41812	0.38150
5.925	3.41804	0.38362
5.950	3.41797	0.38575
5.975	3.41791	0.38787
6.000	3.41785	0.38999
6.025	3.41779	0.39211
6.050	3.41774	0.39422
6.075	3.41769	0.39634
6.100	3.41765	0.39846
6.125	3.41761	0.40057
6.150	3.41758	0.40269
6.175	3.41755	0.40480
6.200	3.41752	0.40691
6.225	3.41750	0.40902
6.250	3.41748	0.41113
6.275	3.41746	0.41323
6.300	3.41745	0.41534
6.325	3.41745	0.41744
6.350	3.41744	0.41955
6.375	3.41745	0.42165
6.400	3.41745	0.42375
6.425	3.41746	0.42585
6.450	3.41747	0.42794
6.475	3.41749	0.43004
6.500	3.41751	0.43214
6.525	3.41753	0.43423
6.550	3.41756	0.43632
6.575	3.41759	0.43841
6.600	3.41762	0.44050
6.625	3.41766	0.44259
6.650	3.41770	0.44468
6.675	3.41774	0.44677
6.700	3.41779	0.44885
6.725	3.41784	0.45094
6.750	3.41790	0.45302
6.775	3.41795	0.45510
6.800	3.41802	0.45718
6.825	3.41808	0.45926
6.850	3.41815	0.46134
6.875	3.41822	0.46341
6.900	3.41829	0.46549
6.925	3.41837	0.46756
6.950	3.41845	0.46963
6.975	3.41853	0.47170
7.000	3.41861	0.47377
7.025	3.41870	0.47584
7.050	3.41879	0.47791
7.075	3.41889	0.47997
7.100	3.41899	0.48204
7.125	3.41909	0.48410
7.150	3.41919	0.48617
7.175	3.41930	0.48823
7.200	3.41940	0.49029
7.225	3.41952	0.49234
7.250	3.41963	0.49440
7.275	3.41975	0.49646
7.300	3.41987	0.49851
7.325	3.41999	0.50057
7.350	3.42012	0.50262
7.375	3.42024	0.50467
7.400	3.42037	0.50672
7.425	3.42051	0.50877
7.450	3.42064	0.51081
7.475	3.42078	0.51286
7.500	3.42092	0.51490
7.525	3.42106	0.51695
7.550	3.42121	0.51899
7.575	3.42136	0.52103
7.600	3.42151	0.52307
7.625	3.42166	0.52511
7.650	3.42182	0.52714
7.675	3.42198	0.52918
7.700	3.42214	0.53122
7.725	3.42230	0.53325
7.750	3.42246	0.53528
7.775	3.42263	0.53731
7.800	3.42280	0.53934
7.825	3.42298	0.54137
7.850	3.42315	0.54340
7.875	3.42333	0.54543
7.900	3.42351	0.54745
7.925	3.42369	0.54947
7.950	3.42387	0.55150
7.975	3.42406	0.55352
8.000	3.42424	0.55554
8.025	3.42443	0.55756
8.050	3.42463	0.55957
8.075	3.42482	0.56159
8.100	3.42502	0.56361
8.125	3.42522	0.56562
8.150	3.42542	0.56763
8.175	3.42562	0.56964
8.200	3.42583	0.57166
8.225	3.42603	0.57367
8.250	3.42624	0.57567
8.275	3.42645	0.57768
8.300	3.42666	0.57969
8.325	3.42688	0.58169
8.350	3.42710	0.58369
8.375	3.42732	0.58570
8.400	3.42754	0.58770
8.425	3.42776	0.58970
8.450	3.42799	0.59170
8.475	3.42821	0.59369
8.500	3.42844	0.59569
8.525	3.42867	0.59769
8.550	3.42890	0.59968
8.575	3.42914	0.60167
8.600	3.42937	0.60367
8.625	3.42961	0.60566
8.650	3.42985	0.60765
8.675	3.43009	0.60963
8.700	3.43034	0.61162
8.725	3.43058	0.61361
8.750	3.43083	0.61559
8.775	3.43108	0.61758
8.800	3.43133	0.61956
8.825	3.43158	0.62154
8.850	3.43184	0.62352
8.875	3.43209	0.62550
8.900	3.43235	0.62748
8.925	3.43261	0.62945
8.950	3.43287	0.63143
8.975	3.43313	0.63341
9.000	3.43340	0.63538
9.025	3.43367	0.63735
9.050	3.43393	0.63932
9.075	3.43420	0.64129
9.100	3.43447	0.64326
9.125	3.43475	0.64523
9.150	3.43502	0.64720
9.175	3.43530	0.64916
9.200	3.43558	0.65113
9.225	3.43585	0.65309
9.250	3.43614	0.65505
9.275	3.43642	0.65702
9.300	3.43670	0.65898
9.325	3.43699	0.66094
9.350	3.43728	0.66289
9.375	3.43756	0.66485
9.400	3.43785	0.66681
9.425	3.43815	0.66876
9.450	3.43844	0.67071
9.475	3.43873	0.67267
9.500	3.43903	0.67462
9.525	3.43933	0.67657
9.550	3.43963	0.67852
9.575	3.43993	0.68047
9.600	3.44023	0.68241
9.625	3.44054	0.68436
9.650	3.44084	0.68631
9.675	3.44115	0.68825
9.700	3.44145	0.69019
9.725	3.44177	0.69213
9.750	3.44208	0.69408
9.775	3.44239	0.69601
9.800	3.44270	0.69795
9.825	3.44302	0.69989
9.850	3.44333	0.70183
9.875	3.44365	0.70376
9.900	3.44397	0.70570
9.925	3.44429	0.70763
9.950	3.44462	0.70956
9.975	3.44494	0.71149
10.00	3.44526	0.71342
