Material: inorganic / TaS2 / Munkhbat-o
Optical constants. B. Munkhbat, P. Wrobel, T. J. Antosiewicz, T. O. Shegai. Optical constants of several multilayer transition metal dichalcogenides spectroscopic ellipsometry in the 300–1700 nm range: High index, anisotropy, and hyperbolicity, ACS Photonics 9, 2398–2407 (2022) (Numerical data kindly provided by Tomasz Antosiewicz)
Comments: Multilayer flakes. In-plane (ordinary ray, o). Room temperature.
Specs: {"n_absolute": true, "wavelength_vacuum": true}
wavelength (um)	n	k
3.000000e-01	2.650291e+00	1.575713e+00
3.030000e-01	2.656104e+00	1.576279e+00
3.060000e-01	2.662432e+00	1.578101e+00
3.090000e-01	2.669420e+00	1.581125e+00
3.120000e-01	2.677212e+00	1.585282e+00
3.150000e-01	2.685951e+00	1.590494e+00
3.180000e-01	2.695777e+00	1.596666e+00
3.210000e-01	2.706828e+00	1.603687e+00
3.240000e-01	2.719236e+00	1.611430e+00
3.270000e-01	2.733124e+00	1.619751e+00
3.300000e-01	2.748608e+00	1.628486e+00
3.330000e-01	2.765790e+00	1.637456e+00
3.360000e-01	2.784756e+00	1.646461e+00
3.390000e-01	2.805574e+00	1.655283e+00
3.420000e-01	2.828286e+00	1.663690e+00
3.450000e-01	2.852911e+00	1.671435e+00
3.480000e-01	2.879436e+00	1.678259e+00
3.510000e-01	2.907814e+00	1.683895e+00
3.540000e-01	2.937962e+00	1.688077e+00
3.570000e-01	2.969757e+00	1.690538e+00
3.600000e-01	3.003035e+00	1.691023e+00
3.630000e-01	3.037594e+00	1.689293e+00
3.660000e-01	3.073190e+00	1.685133e+00
3.690000e-01	3.109545e+00	1.678362e+00
3.720000e-01	3.146348e+00	1.668836e+00
3.750000e-01	3.183266e+00	1.656459e+00
3.780000e-01	3.219946e+00	1.641185e+00
3.810000e-01	3.256032e+00	1.623021e+00
3.840000e-01	3.291168e+00	1.602032e+00
3.870000e-01	3.325014e+00	1.578336e+00
3.900000e-01	3.357252e+00	1.552102e+00
3.930000e-01	3.387599e+00	1.523543e+00
3.960000e-01	3.415812e+00	1.492912e+00
3.990000e-01	3.441691e+00	1.460490e+00
4.020000e-01	3.465088e+00	1.426575e+00
4.050000e-01	3.485905e+00	1.391477e+00
4.080000e-01	3.504090e+00	1.355502e+00
4.110000e-01	3.519640e+00	1.318952e+00
4.140000e-01	3.532591e+00	1.282109e+00
4.170000e-01	3.543014e+00	1.245237e+00
4.200000e-01	3.551009e+00	1.208572e+00
4.230000e-01	3.556701e+00	1.172324e+00
4.260000e-01	3.560231e+00	1.136674e+00
4.290000e-01	3.561749e+00	1.101773e+00
4.320000e-01	3.561413e+00	1.067745e+00
4.350000e-01	3.559384e+00	1.034689e+00
4.380000e-01	3.555819e+00	1.002679e+00
4.410000e-01	3.550872e+00	9.717685e-01
4.440000e-01	3.544688e+00	9.419918e-01
4.470000e-01	3.537408e+00	9.133675e-01
4.500000e-01	3.529161e+00	8.859004e-01
4.530000e-01	3.520067e+00	8.595844e-01
4.560000e-01	3.510235e+00	8.344038e-01
4.590000e-01	3.499767e+00	8.103358e-01
4.620000e-01	3.488754e+00	7.873518e-01
4.650000e-01	3.477278e+00	7.654192e-01
4.680000e-01	3.465411e+00	7.445021e-01
4.710000e-01	3.453220e+00	7.245625e-01
4.740000e-01	3.440764e+00	7.055613e-01
4.770000e-01	3.428092e+00	6.874588e-01
4.800000e-01	3.415252e+00	6.702154e-01
4.830000e-01	3.402282e+00	6.537917e-01
4.860000e-01	3.389217e+00	6.381492e-01
4.890000e-01	3.376089e+00	6.232505e-01
4.920000e-01	3.362922e+00	6.090593e-01
4.950000e-01	3.349741e+00	5.955405e-01
4.980000e-01	3.336564e+00	5.826607e-01
5.010000e-01	3.323408e+00	5.703879e-01
5.040000e-01	3.310288e+00	5.586914e-01
5.070000e-01	3.297216e+00	5.475421e-01
5.100000e-01	3.284201e+00	5.369126e-01
5.130000e-01	3.271253e+00	5.267767e-01
5.160000e-01	3.258378e+00	5.171096e-01
5.190000e-01	3.245582e+00	5.078881e-01
5.220000e-01	3.232869e+00	4.990899e-01
5.250000e-01	3.220243e+00	4.906944e-01
5.280000e-01	3.207707e+00	4.826819e-01
5.310000e-01	3.195262e+00	4.750338e-01
5.340000e-01	3.182910e+00	4.677328e-01
5.370000e-01	3.170651e+00	4.607625e-01
5.400000e-01	3.158485e+00	4.541073e-01
5.430000e-01	3.146413e+00	4.477528e-01
5.460000e-01	3.134433e+00	4.416853e-01
5.490000e-01	3.122545e+00	4.358918e-01
5.520000e-01	3.110748e+00	4.303602e-01
5.550000e-01	3.099040e+00	4.250791e-01
5.580000e-01	3.087420e+00	4.200376e-01
5.610000e-01	3.075886e+00	4.152257e-01
5.640000e-01	3.064436e+00	4.106338e-01
5.670000e-01	3.053068e+00	4.062529e-01
5.700000e-01	3.041780e+00	4.020745e-01
5.730000e-01	3.030571e+00	3.980905e-01
5.760000e-01	3.019437e+00	3.942935e-01
5.790000e-01	3.008378e+00	3.906762e-01
5.820000e-01	2.997390e+00	3.872320e-01
5.850000e-01	2.986473e+00	3.839546e-01
5.880000e-01	2.975622e+00	3.808379e-01
5.910000e-01	2.964837e+00	3.778762e-01
5.940000e-01	2.954115e+00	3.750643e-01
5.970000e-01	2.943454e+00	3.723970e-01
6.000000e-01	2.932852e+00	3.698697e-01
6.030000e-01	2.922307e+00	3.674777e-01
6.060000e-01	2.911817e+00	3.652168e-01
6.090000e-01	2.901380e+00	3.630830e-01
6.120000e-01	2.890994e+00	3.610725e-01
6.150000e-01	2.880656e+00	3.591816e-01
6.180000e-01	2.870366e+00	3.574068e-01
6.210000e-01	2.860121e+00	3.557451e-01
6.240000e-01	2.849919e+00	3.541932e-01
6.270000e-01	2.839759e+00	3.527484e-01
6.300000e-01	2.829640e+00	3.514077e-01
6.330000e-01	2.819558e+00	3.501688e-01
6.360000e-01	2.809513e+00	3.490289e-01
6.390000e-01	2.799503e+00	3.479859e-01
6.420000e-01	2.789527e+00	3.470375e-01
6.450000e-01	2.779583e+00	3.461816e-01
6.480000e-01	2.769670e+00	3.454162e-01
6.510000e-01	2.759786e+00	3.447394e-01
6.540000e-01	2.749930e+00	3.441494e-01
6.570000e-01	2.740101e+00	3.436446e-01
6.600000e-01	2.730297e+00	3.432233e-01
6.630000e-01	2.720518e+00	3.428841e-01
6.660000e-01	2.710761e+00	3.426254e-01
6.690000e-01	2.701027e+00	3.424460e-01
6.720000e-01	2.691314e+00	3.423445e-01
6.750000e-01	2.681620e+00	3.423197e-01
6.780000e-01	2.671946e+00	3.423705e-01
6.810000e-01	2.662290e+00	3.424957e-01
6.840000e-01	2.652651e+00	3.426943e-01
6.870000e-01	2.643030e+00	3.429654e-01
6.900000e-01	2.633424e+00	3.433080e-01
6.930000e-01	2.623833e+00	3.437212e-01
6.960000e-01	2.614258e+00	3.442041e-01
6.990000e-01	2.604697e+00	3.447561e-01
7.020000e-01	2.595151e+00	3.453762e-01
7.050000e-01	2.585618e+00	3.460638e-01
7.080000e-01	2.576101e+00	3.468181e-01
7.110000e-01	2.566597e+00	3.476384e-01
7.140000e-01	2.557110e+00	3.485239e-01
7.170000e-01	2.547638e+00	3.494740e-01
7.200000e-01	2.538186e+00	3.504878e-01
7.230000e-01	2.528756e+00	3.515641e-01
7.260000e-01	2.519362e+00	3.526927e-01
7.290000e-01	2.509990e+00	3.538544e-01
7.320000e-01	2.500629e+00	3.550497e-01
7.350000e-01	2.491274e+00	3.562797e-01
7.380000e-01	2.481921e+00	3.575451e-01
7.410000e-01	2.472566e+00	3.588466e-01
7.440000e-01	2.463207e+00	3.601847e-01
7.470000e-01	2.453841e+00	3.615600e-01
7.500000e-01	2.444466e+00	3.629731e-01
7.530000e-01	2.435081e+00	3.644246e-01
7.560000e-01	2.425682e+00	3.659149e-01
7.590000e-01	2.416269e+00	3.674446e-01
7.620000e-01	2.406841e+00	3.690142e-01
7.650000e-01	2.397395e+00	3.706244e-01
7.680000e-01	2.387930e+00	3.722756e-01
7.710000e-01	2.378444e+00	3.739684e-01
7.740000e-01	2.368938e+00	3.757033e-01
7.770000e-01	2.359409e+00	3.774811e-01
7.800000e-01	2.349855e+00	3.793021e-01
7.830000e-01	2.340277e+00	3.811672e-01
7.860000e-01	2.330673e+00	3.830768e-01
7.890000e-01	2.321042e+00	3.850315e-01
7.920000e-01	2.311383e+00	3.870322e-01
7.950000e-01	2.301694e+00	3.890794e-01
7.980000e-01	2.291976e+00	3.911737e-01
8.010000e-01	2.282227e+00	3.933160e-01
8.040000e-01	2.272446e+00	3.955068e-01
8.070000e-01	2.262632e+00	3.977470e-01
8.100000e-01	2.252785e+00	4.000372e-01
8.130000e-01	2.242904e+00	4.023784e-01
8.160000e-01	2.232988e+00	4.047712e-01
8.190000e-01	2.223035e+00	4.072165e-01
8.220000e-01	2.213046e+00	4.097151e-01
8.250000e-01	2.203020e+00	4.122679e-01
8.280000e-01	2.192956e+00	4.148757e-01
8.310000e-01	2.182853e+00	4.175396e-01
8.340000e-01	2.172710e+00	4.202603e-01
8.370000e-01	2.162528e+00	4.230389e-01
8.400000e-01	2.152305e+00	4.258764e-01
8.430000e-01	2.142040e+00	4.287737e-01
8.460000e-01	2.131734e+00	4.317320e-01
8.490000e-01	2.121385e+00	4.347523e-01
8.520000e-01	2.110993e+00	4.378357e-01
8.550000e-01	2.100558e+00	4.409834e-01
8.580000e-01	2.090078e+00	4.441964e-01
8.610000e-01	2.079554e+00	4.474761e-01
8.640000e-01	2.068985e+00	4.508236e-01
8.670000e-01	2.058370e+00	4.542403e-01
8.700000e-01	2.047710e+00	4.577274e-01
8.730000e-01	2.037003e+00	4.612862e-01
8.760000e-01	2.026249e+00	4.649182e-01
8.790000e-01	2.015448e+00	4.686248e-01
8.820000e-01	2.004600e+00	4.724074e-01
8.850000e-01	1.993704e+00	4.762675e-01
8.880000e-01	1.982761e+00	4.802067e-01
8.910000e-01	1.971769e+00	4.842265e-01
8.940000e-01	1.960728e+00	4.883286e-01
8.970000e-01	1.949639e+00	4.925146e-01
9.000000e-01	1.938502e+00	4.967862e-01
9.030000e-01	1.927315e+00	5.011453e-01
9.060000e-01	1.916080e+00	5.055935e-01
9.090000e-01	1.904796e+00	5.101328e-01
9.120000e-01	1.893464e+00	5.147650e-01
9.150000e-01	1.882082e+00	5.194920e-01
9.180000e-01	1.870652e+00	5.243160e-01
9.210000e-01	1.859174e+00	5.292388e-01
9.240000e-01	1.847648e+00	5.342627e-01
9.270000e-01	1.836074e+00	5.393896e-01
9.300000e-01	1.824453e+00	5.446218e-01
9.330000e-01	1.812785e+00	5.499616e-01
9.360000e-01	1.801071e+00	5.554112e-01
9.390000e-01	1.789311e+00	5.609729e-01
9.420000e-01	1.777506e+00	5.666492e-01
9.450000e-01	1.765657e+00	5.724423e-01
9.480000e-01	1.753765e+00	5.783548e-01
9.510000e-01	1.741830e+00	5.843892e-01
9.540000e-01	1.729854e+00	5.905480e-01
9.570000e-01	1.717839e+00	5.968338e-01
9.600000e-01	1.705784e+00	6.032492e-01
9.630000e-01	1.693693e+00	6.097968e-01
9.660000e-01	1.681565e+00	6.164793e-01
9.690000e-01	1.669404e+00	6.232994e-01
9.720000e-01	1.657211e+00	6.302598e-01
9.750000e-01	1.644987e+00	6.373632e-01
9.780000e-01	1.632735e+00	6.446124e-01
9.810000e-01	1.620457e+00	6.520100e-01
9.840000e-01	1.608156e+00	6.595588e-01
9.870000e-01	1.595835e+00	6.672614e-01
9.900000e-01	1.583495e+00	6.751206e-01
9.930000e-01	1.571140e+00	6.831390e-01
9.960000e-01	1.558773e+00	6.913192e-01
9.990000e-01	1.546397e+00	6.996636e-01
1.005000e+00	1.521634e+00	7.168553e-01
1.012500e+00	1.490698e+00	7.393113e-01
1.020000e+00	1.459842e+00	7.628711e-01
1.027500e+00	1.429140e+00	7.875616e-01
1.035000e+00	1.398671e+00	8.134022e-01
1.042500e+00	1.368522e+00	8.404033e-01
1.050000e+00	1.338782e+00	8.685650e-01
1.057500e+00	1.309544e+00	8.978755e-01
1.065000e+00	1.280904e+00	9.283102e-01
1.072500e+00	1.252953e+00	9.598312e-01
1.080000e+00	1.225781e+00	9.923876e-01
1.087500e+00	1.199469e+00	1.025916e+00
1.095000e+00	1.174089e+00	1.060342e+00
1.102500e+00	1.149705e+00	1.095581e+00
1.110000e+00	1.126365e+00	1.131544e+00
1.117500e+00	1.104106e+00	1.168136e+00
1.125000e+00	1.082949e+00	1.205260e+00
1.132500e+00	1.062905e+00	1.242822e+00
1.140000e+00	1.043972e+00	1.280728e+00
1.147500e+00	1.026136e+00	1.318893e+00
1.155000e+00	1.009375e+00	1.357233e+00
1.162500e+00	9.936593e-01	1.395676e+00
1.170000e+00	9.789541e-01	1.434155e+00
1.177500e+00	9.652197e-01	1.472611e+00
1.185000e+00	9.524135e-01	1.510993e+00
1.192500e+00	9.404915e-01	1.549255e+00
1.200000e+00	9.294091e-01	1.587362e+00
1.207500e+00	9.191217e-01	1.625281e+00
1.215000e+00	9.095858e-01	1.662987e+00
1.222500e+00	9.007587e-01	1.700458e+00
1.230000e+00	8.925997e-01	1.737678e+00
1.237500e+00	8.850698e-01	1.774633e+00
1.245000e+00	8.781320e-01	1.811315e+00
1.252500e+00	8.717513e-01	1.847716e+00
1.260000e+00	8.658947e-01	1.883831e+00
1.267500e+00	8.605314e-01	1.919657e+00
1.275000e+00	8.556323e-01	1.955194e+00
1.282500e+00	8.511704e-01	1.990441e+00
1.290000e+00	8.471204e-01	2.025401e+00
1.297500e+00	8.434588e-01	2.060075e+00
1.305000e+00	8.401636e-01	2.094466e+00
1.312500e+00	8.372143e-01	2.128578e+00
1.320000e+00	8.345920e-01	2.162416e+00
1.327500e+00	8.322788e-01	2.195983e+00
1.335000e+00	8.302582e-01	2.229285e+00
1.342500e+00	8.285149e-01	2.262326e+00
1.350000e+00	8.270345e-01	2.295112e+00
1.357500e+00	8.258036e-01	2.327648e+00
1.365000e+00	8.248097e-01	2.359938e+00
1.372500e+00	8.240412e-01	2.391990e+00
1.380000e+00	8.234872e-01	2.423806e+00
1.387500e+00	8.231375e-01	2.455394e+00
1.395000e+00	8.229826e-01	2.486757e+00
1.402500e+00	8.230135e-01	2.517902e+00
1.410000e+00	8.232220e-01	2.548833e+00
1.417500e+00	8.236002e-01	2.579554e+00
1.425000e+00	8.241407e-01	2.610071e+00
1.432500e+00	8.248366e-01	2.640389e+00
1.440000e+00	8.256815e-01	2.670511e+00
1.447500e+00	8.266693e-01	2.700443e+00
1.455000e+00	8.277942e-01	2.730189e+00
1.462500e+00	8.290508e-01	2.759752e+00
1.470000e+00	8.304340e-01	2.789137e+00
1.477500e+00	8.319390e-01	2.818348e+00
1.485000e+00	8.335612e-01	2.847389e+00
1.492500e+00	8.352964e-01	2.876264e+00
1.500000e+00	8.371404e-01	2.904976e+00
1.507500e+00	8.390895e-01	2.933528e+00
1.515000e+00	8.411400e-01	2.961924e+00
1.522500e+00	8.432884e-01	2.990168e+00
1.530000e+00	8.455315e-01	3.018263e+00
1.537500e+00	8.478662e-01	3.046211e+00
1.545000e+00	8.502894e-01	3.074016e+00
1.552500e+00	8.527985e-01	3.101681e+00
1.560000e+00	8.553906e-01	3.129208e+00
1.567500e+00	8.580634e-01	3.156600e+00
1.575000e+00	8.608143e-01	3.183861e+00
1.582500e+00	8.636410e-01	3.210992e+00
1.590000e+00	8.665414e-01	3.237995e+00
1.597500e+00	8.695133e-01	3.264875e+00
1.605000e+00	8.725547e-01	3.291632e+00
1.612500e+00	8.756638e-01	3.318269e+00
1.620000e+00	8.788386e-01	3.344789e+00
1.627500e+00	8.820774e-01	3.371193e+00
1.635000e+00	8.853786e-01	3.397483e+00
1.642500e+00	8.887405e-01	3.423662e+00
1.650000e+00	8.921616e-01	3.449732e+00
1.657500e+00	8.956404e-01	3.475694e+00
1.665000e+00	8.991755e-01	3.501551e+00
1.672500e+00	9.027655e-01	3.527303e+00
1.680000e+00	9.064091e-01	3.552954e+00
1.687500e+00	9.101051e-01	3.578504e+00
