Material: inorganic / TaS2 / Munkhbat-e
Optical constants. B. Munkhbat, P. Wrobel, T. J. Antosiewicz, T. O. Shegai. Optical constants of several multilayer transition metal dichalcogenides spectroscopic ellipsometry in the 300–1700 nm range: High index, anisotropy, and hyperbolicity, ACS Photonics 9, 2398–2407 (2022) (Numerical data kindly provided by Tomasz Antosiewicz)
Comments: Multilayer flakes. Out-of-plane (extraordinary ray, e). Room temperature.
Specs: {"n_absolute": true, "wavelength_vacuum": true}
wavelength (um)	n	k
3.000000e-01	1.513990e+00	8.651776e-01
3.030000e-01	1.520855e+00	9.062107e-01
3.060000e-01	1.529346e+00	9.525466e-01
3.090000e-01	1.542761e+00	1.005011e+00
3.120000e-01	1.564910e+00	1.062679e+00
3.150000e-01	1.599358e+00	1.122562e+00
3.180000e-01	1.648281e+00	1.179440e+00
3.210000e-01	1.710770e+00	1.226483e+00
3.240000e-01	1.781390e+00	1.257581e+00
3.270000e-01	1.851149e+00	1.271063e+00
3.300000e-01	1.911887e+00	1.271633e+00
3.330000e-01	1.960782e+00	1.267678e+00
3.360000e-01	2.000685e+00	1.266308e+00
3.390000e-01	2.037012e+00	1.270688e+00
3.420000e-01	2.074774e+00	1.280479e+00
3.450000e-01	2.117341e+00	1.293405e+00
3.480000e-01	2.166394e+00	1.306511e+00
3.510000e-01	2.222278e+00	1.316847e+00
3.540000e-01	2.284346e+00	1.321775e+00
3.570000e-01	2.351209e+00	1.319116e+00
3.600000e-01	2.420917e+00	1.307258e+00
3.630000e-01	2.491140e+00	1.285251e+00
3.660000e-01	2.559367e+00	1.252883e+00
3.690000e-01	2.623140e+00	1.210702e+00
3.720000e-01	2.680306e+00	1.159950e+00
3.750000e-01	2.729218e+00	1.102408e+00
3.780000e-01	2.768870e+00	1.040172e+00
3.810000e-01	2.798920e+00	9.754028e-01
3.840000e-01	2.819623e+00	9.101094e-01
3.870000e-01	2.831688e+00	8.459896e-01
3.900000e-01	2.836117e+00	7.843513e-01
3.930000e-01	2.834050e+00	7.261007e-01
3.960000e-01	2.826628e+00	6.717794e-01
3.990000e-01	2.814908e+00	6.216299e-01
4.020000e-01	2.799794e+00	5.756777e-01
4.050000e-01	2.782009e+00	5.338239e-01
4.080000e-01	2.762105e+00	4.959500e-01
4.110000e-01	2.740542e+00	4.620168e-01
4.140000e-01	2.717860e+00	4.320830e-01
4.170000e-01	2.694926e+00	4.061026e-01
4.200000e-01	2.672410e+00	3.831934e-01
4.230000e-01	2.650218e+00	3.628839e-01
4.260000e-01	2.628426e+00	3.449230e-01
4.290000e-01	2.607114e+00	3.290736e-01
4.320000e-01	2.586344e+00	3.151190e-01
4.350000e-01	2.566160e+00	3.028633e-01
4.380000e-01	2.546586e+00	2.921309e-01
4.410000e-01	2.527638e+00	2.827652e-01
4.440000e-01	2.509318e+00	2.746266e-01
4.470000e-01	2.491623e+00	2.675914e-01
4.500000e-01	2.474542e+00	2.615497e-01
4.530000e-01	2.458061e+00	2.564039e-01
4.560000e-01	2.442165e+00	2.520676e-01
4.590000e-01	2.426834e+00	2.484639e-01
4.620000e-01	2.412049e+00	2.455247e-01
4.650000e-01	2.397790e+00	2.431893e-01
4.680000e-01	2.384037e+00	2.414035e-01
4.710000e-01	2.370768e+00	2.401193e-01
4.740000e-01	2.357965e+00	2.392936e-01
4.770000e-01	2.345607e+00	2.388879e-01
4.800000e-01	2.333676e+00	2.388677e-01
4.830000e-01	2.322155e+00	2.392022e-01
4.860000e-01	2.311025e+00	2.398634e-01
4.890000e-01	2.300271e+00	2.408266e-01
4.920000e-01	2.289876e+00	2.420689e-01
4.950000e-01	2.279826e+00	2.435703e-01
4.980000e-01	2.270107e+00	2.453121e-01
5.010000e-01	2.260705e+00	2.472779e-01
5.040000e-01	2.251608e+00	2.494524e-01
5.070000e-01	2.242804e+00	2.518219e-01
5.100000e-01	2.234282e+00	2.543740e-01
5.130000e-01	2.226030e+00	2.570972e-01
5.160000e-01	2.218040e+00	2.599812e-01
5.190000e-01	2.210303e+00	2.630164e-01
5.220000e-01	2.202808e+00	2.661942e-01
5.250000e-01	2.195549e+00	2.695066e-01
5.280000e-01	2.188519e+00	2.729462e-01
5.310000e-01	2.181709e+00	2.765063e-01
5.340000e-01	2.175115e+00	2.801806e-01
5.370000e-01	2.168730e+00	2.839632e-01
5.400000e-01	2.162551e+00	2.878489e-01
5.430000e-01	2.156574e+00	2.918323e-01
5.460000e-01	2.150797e+00	2.959085e-01
5.490000e-01	2.145222e+00	3.000724e-01
5.520000e-01	2.139862e+00	3.043128e-01
5.550000e-01	2.134709e+00	3.085839e-01
5.580000e-01	2.129727e+00	3.128793e-01
5.610000e-01	2.124899e+00	3.172010e-01
5.640000e-01	2.120213e+00	3.215502e-01
5.670000e-01	2.115660e+00	3.259283e-01
5.700000e-01	2.111232e+00	3.303361e-01
5.730000e-01	2.106921e+00	3.347748e-01
5.760000e-01	2.102721e+00	3.392452e-01
5.790000e-01	2.098627e+00	3.437483e-01
5.820000e-01	2.094632e+00	3.482850e-01
5.850000e-01	2.090734e+00	3.528563e-01
5.880000e-01	2.086926e+00	3.574630e-01
5.910000e-01	2.083205e+00	3.621062e-01
5.940000e-01	2.079568e+00	3.667868e-01
5.970000e-01	2.076010e+00	3.715058e-01
6.000000e-01	2.072530e+00	3.762643e-01
6.030000e-01	2.069123e+00	3.810634e-01
6.060000e-01	2.065786e+00	3.859040e-01
6.090000e-01	2.062518e+00	3.907875e-01
6.120000e-01	2.059316e+00	3.957149e-01
6.150000e-01	2.056178e+00	4.006874e-01
6.180000e-01	2.053100e+00	4.057064e-01
6.210000e-01	2.050083e+00	4.107731e-01
6.240000e-01	2.047122e+00	4.158890e-01
6.270000e-01	2.044218e+00	4.210554e-01
6.300000e-01	2.041367e+00	4.262737e-01
6.330000e-01	2.038570e+00	4.315455e-01
6.360000e-01	2.035823e+00	4.368724e-01
6.390000e-01	2.033127e+00	4.422559e-01
6.420000e-01	2.030479e+00	4.476978e-01
6.450000e-01	2.027879e+00	4.531998e-01
6.480000e-01	2.025326e+00	4.587637e-01
6.510000e-01	2.022819e+00	4.643913e-01
6.540000e-01	2.020358e+00	4.700846e-01
6.570000e-01	2.017941e+00	4.758456e-01
6.600000e-01	2.015568e+00	4.816764e-01
6.630000e-01	2.013239e+00	4.875791e-01
6.660000e-01	2.010954e+00	4.935558e-01
6.690000e-01	2.008711e+00	4.996089e-01
6.720000e-01	2.006513e+00	5.057407e-01
6.750000e-01	2.004357e+00	5.119536e-01
6.780000e-01	2.002245e+00	5.182502e-01
6.810000e-01	2.000178e+00	5.246329e-01
6.840000e-01	1.998154e+00	5.311045e-01
6.870000e-01	1.996175e+00	5.376677e-01
6.900000e-01	1.994243e+00	5.443252e-01
6.930000e-01	1.992356e+00	5.510801e-01
6.960000e-01	1.990518e+00	5.579351e-01
6.990000e-01	1.988728e+00	5.648934e-01
7.020000e-01	1.986989e+00	5.719581e-01
7.050000e-01	1.985301e+00	5.791323e-01
7.080000e-01	1.983667e+00	5.864194e-01
7.110000e-01	1.982089e+00	5.938227e-01
7.140000e-01	1.980568e+00	6.013455e-01
7.170000e-01	1.979108e+00	6.089915e-01
7.200000e-01	1.977710e+00	6.167642e-01
7.230000e-01	1.976377e+00	6.246671e-01
7.260000e-01	1.975113e+00	6.327040e-01
7.290000e-01	1.973921e+00	6.408785e-01
7.320000e-01	1.972805e+00	6.491946e-01
7.350000e-01	1.971767e+00	6.576561e-01
7.380000e-01	1.970814e+00	6.662667e-01
7.410000e-01	1.969948e+00	6.750306e-01
7.440000e-01	1.969175e+00	6.839515e-01
7.470000e-01	1.968500e+00	6.930335e-01
7.500000e-01	1.967929e+00	7.022806e-01
7.530000e-01	1.967467e+00	7.116967e-01
7.560000e-01	1.967121e+00	7.212857e-01
7.590000e-01	1.966898e+00	7.310517e-01
7.620000e-01	1.966804e+00	7.409985e-01
7.650000e-01	1.966847e+00	7.511299e-01
7.680000e-01	1.967036e+00	7.614497e-01
7.710000e-01	1.967378e+00	7.719615e-01
7.740000e-01	1.967883e+00	7.826689e-01
7.770000e-01	1.968561e+00	7.935753e-01
7.800000e-01	1.969422e+00	8.046840e-01
7.830000e-01	1.970476e+00	8.159979e-01
7.860000e-01	1.971734e+00	8.275200e-01
7.890000e-01	1.973210e+00	8.392528e-01
7.920000e-01	1.974915e+00	8.511986e-01
7.950000e-01	1.976863e+00	8.633593e-01
7.980000e-01	1.979069e+00	8.757365e-01
8.010000e-01	1.981546e+00	8.883314e-01
8.040000e-01	1.984311e+00	9.011447e-01
8.070000e-01	1.987380e+00	9.141764e-01
8.100000e-01	1.990771e+00	9.274262e-01
8.130000e-01	1.994501e+00	9.408928e-01
8.160000e-01	1.998591e+00	9.545742e-01
8.190000e-01	2.003061e+00	9.684678e-01
8.220000e-01	2.007932e+00	9.825696e-01
8.250000e-01	2.013226e+00	9.968747e-01
8.280000e-01	2.018967e+00	1.011377e+00
8.310000e-01	2.025180e+00	1.026069e+00
8.340000e-01	2.031891e+00	1.040941e+00
8.370000e-01	2.039127e+00	1.055982e+00
8.400000e-01	2.046917e+00	1.071178e+00
8.430000e-01	2.055290e+00	1.086515e+00
8.460000e-01	2.064277e+00	1.101973e+00
8.490000e-01	2.073910e+00	1.117531e+00
8.520000e-01	2.084222e+00	1.133165e+00
8.550000e-01	2.095247e+00	1.148843e+00
8.580000e-01	2.107018e+00	1.164534e+00
8.610000e-01	2.119570e+00	1.180197e+00
8.640000e-01	2.132935e+00	1.195789e+00
8.670000e-01	2.147148e+00	1.211260e+00
8.700000e-01	2.162236e+00	1.226551e+00
8.730000e-01	2.178227e+00	1.241599e+00
8.760000e-01	2.195144e+00	1.256331e+00
8.790000e-01	2.213002e+00	1.270670e+00
8.820000e-01	2.231810e+00	1.284527e+00
8.850000e-01	2.251567e+00	1.297812e+00
8.880000e-01	2.272258e+00	1.310425e+00
8.910000e-01	2.293858e+00	1.322264e+00
8.940000e-01	2.316324e+00	1.333225e+00
8.970000e-01	2.339598e+00	1.343206e+00
9.000000e-01	2.363605e+00	1.352109e+00
9.030000e-01	2.388249e+00	1.359844e+00
9.060000e-01	2.413423e+00	1.366333e+00
9.090000e-01	2.439003e+00	1.371515e+00
9.120000e-01	2.464854e+00	1.375347e+00
9.150000e-01	2.490835e+00	1.377811e+00
9.180000e-01	2.516805e+00	1.378907e+00
9.210000e-01	2.542622e+00	1.378664e+00
9.240000e-01	2.568156e+00	1.377130e+00
9.270000e-01	2.593290e+00	1.374371e+00
9.300000e-01	2.617922e+00	1.370470e+00
9.330000e-01	2.641968e+00	1.365522e+00
9.360000e-01	2.665366e+00	1.359626e+00
9.390000e-01	2.688071e+00	1.352884e+00
9.420000e-01	2.710059e+00	1.345396e+00
9.450000e-01	2.731319e+00	1.337255e+00
9.480000e-01	2.751853e+00	1.328546e+00
9.510000e-01	2.771675e+00	1.319347e+00
9.540000e-01	2.790805e+00	1.309721e+00
9.570000e-01	2.809267e+00	1.299727e+00
9.600000e-01	2.827088e+00	1.289410e+00
9.630000e-01	2.844293e+00	1.278808e+00
9.660000e-01	2.860910e+00	1.267952e+00
9.690000e-01	2.876962e+00	1.256866e+00
9.720000e-01	2.892469e+00	1.245572e+00
9.750000e-01	2.907451e+00	1.234086e+00
9.780000e-01	2.921922e+00	1.222421e+00
9.810000e-01	2.935895e+00	1.210591e+00
9.840000e-01	2.949380e+00	1.198606e+00
9.870000e-01	2.962387e+00	1.186479e+00
9.900000e-01	2.974921e+00	1.174220e+00
9.930000e-01	2.986987e+00	1.161841e+00
9.960000e-01	2.998591e+00	1.149355e+00
9.990000e-01	3.009736e+00	1.136773e+00
1.005000e+00	3.030664e+00	1.111376e+00
1.012500e+00	3.054312e+00	1.079338e+00
1.020000e+00	3.075243e+00	1.047190e+00
1.027500e+00	3.093557e+00	1.015160e+00
1.035000e+00	3.109387e+00	9.834626e-01
1.042500e+00	3.122885e+00	9.522948e-01
1.050000e+00	3.134227e+00	9.218242e-01
1.057500e+00	3.143596e+00	8.921881e-01
1.065000e+00	3.151185e+00	8.634929e-01
1.072500e+00	3.157181e+00	8.358153e-01
1.080000e+00	3.161768e+00	8.092051e-01
1.087500e+00	3.165121e+00	7.836885e-01
1.095000e+00	3.167400e+00	7.592720e-01
1.102500e+00	3.168754e+00	7.359460e-01
1.110000e+00	3.169318e+00	7.136880e-01
1.117500e+00	3.169212e+00	6.924659e-01
1.125000e+00	3.168541e+00	6.722406e-01
1.132500e+00	3.167401e+00	6.529680e-01
1.140000e+00	3.165873e+00	6.346013e-01
1.147500e+00	3.164029e+00	6.170917e-01
1.155000e+00	3.161928e+00	6.003905e-01
1.162500e+00	3.159624e+00	5.844490e-01
1.170000e+00	3.157161e+00	5.692199e-01
1.177500e+00	3.154578e+00	5.546576e-01
1.185000e+00	3.151905e+00	5.407181e-01
1.192500e+00	3.149171e+00	5.273599e-01
1.200000e+00	3.146396e+00	5.145436e-01
1.207500e+00	3.143599e+00	5.022321e-01
1.215000e+00	3.140796e+00	4.903907e-01
1.222500e+00	3.137998e+00	4.789870e-01
1.230000e+00	3.135214e+00	4.679906e-01
1.237500e+00	3.132453e+00	4.573735e-01
1.245000e+00	3.129720e+00	4.471096e-01
1.252500e+00	3.127019e+00	4.371746e-01
1.260000e+00	3.124353e+00	4.275463e-01
1.267500e+00	3.121724e+00	4.182040e-01
1.275000e+00	3.119133e+00	4.091285e-01
1.282500e+00	3.116581e+00	4.003023e-01
1.290000e+00	3.114066e+00	3.917090e-01
1.297500e+00	3.111589e+00	3.833338e-01
1.305000e+00	3.109147e+00	3.751629e-01
1.312500e+00	3.106739e+00	3.671836e-01
1.320000e+00	3.104363e+00	3.593842e-01
1.327500e+00	3.102018e+00	3.517540e-01
1.335000e+00	3.099701e+00	3.442832e-01
1.342500e+00	3.097409e+00	3.369627e-01
1.350000e+00	3.095140e+00	3.297842e-01
1.357500e+00	3.092892e+00	3.227401e-01
1.365000e+00	3.090663e+00	3.158235e-01
1.372500e+00	3.088449e+00	3.090278e-01
1.380000e+00	3.086248e+00	3.023473e-01
1.387500e+00	3.084058e+00	2.957766e-01
1.395000e+00	3.081877e+00	2.893109e-01
1.402500e+00	3.079702e+00	2.829455e-01
1.410000e+00	3.077530e+00	2.766766e-01
1.417500e+00	3.075361e+00	2.705003e-01
1.425000e+00	3.073190e+00	2.644133e-01
1.432500e+00	3.071017e+00	2.584126e-01
1.440000e+00	3.068840e+00	2.524953e-01
1.447500e+00	3.066656e+00	2.466590e-01
1.455000e+00	3.064464e+00	2.409015e-01
1.462500e+00	3.062261e+00	2.352207e-01
1.470000e+00	3.060048e+00	2.296148e-01
1.477500e+00	3.057820e+00	2.240823e-01
1.485000e+00	3.055578e+00	2.186216e-01
1.492500e+00	3.053320e+00	2.132315e-01
1.500000e+00	3.051045e+00	2.079111e-01
1.507500e+00	3.048751e+00	2.026592e-01
1.515000e+00	3.046437e+00	1.974751e-01
1.522500e+00	3.044103e+00	1.923581e-01
1.530000e+00	3.041746e+00	1.873078e-01
1.537500e+00	3.039367e+00	1.823235e-01
1.545000e+00	3.036965e+00	1.774049e-01
1.552500e+00	3.034538e+00	1.725519e-01
1.560000e+00	3.032086e+00	1.677642e-01
1.567500e+00	3.029608e+00	1.630418e-01
1.575000e+00	3.027105e+00	1.583847e-01
1.582500e+00	3.024575e+00	1.537928e-01
1.590000e+00	3.022018e+00	1.492665e-01
1.597500e+00	3.019434e+00	1.448057e-01
1.605000e+00	3.016823e+00	1.404109e-01
1.612500e+00	3.014183e+00	1.360823e-01
1.620000e+00	3.011516e+00	1.318203e-01
1.627500e+00	3.008822e+00	1.276253e-01
1.635000e+00	3.006099e+00	1.234977e-01
1.642500e+00	3.003349e+00	1.194381e-01
1.650000e+00	3.000571e+00	1.154469e-01
1.657500e+00	2.997766e+00	1.115248e-01
1.665000e+00	2.994934e+00	1.076723e-01
1.672500e+00	2.992075e+00	1.038900e-01
1.680000e+00	2.989189e+00	1.001787e-01
1.687500e+00	2.986278e+00	9.653902e-02
