Material: organic / (C2H3Cl)n - polyvinyl chloride / Zhang
Optical constants. 1) X. Zhang, J. Qiu, X. Li, J. Zhao, L. Liu. Complex refractive indices measurements of polymers in visible and near-infrared bands, Appl. Opt. 59, 2337-2344 (2020) (0.4-2 µm)2) X. Zhang, J. Qiu, J. Zhao, X. Li, L. Liu. Complex refractive indices measurements of polymers in infrared bands, J. Quant. Spectrosc. Radiat. Transf. 252, 107063 (2020) (2-20 µm)
Comments: Normal temperature and pressure. Manufacturer: Jubang plastic material, China.
Specs: {"n_absolute": true, "wavelength_vacuum": false}
wavelength (um)	n	k
0.40	1.56135	2.72E-06
0.42	1.55812	2.16E-06
0.44	1.55491	1.82E-06
0.46	1.55236	1.64E-06
0.48	1.55010	1.58E-06
0.50	1.54850	1.67E-06
0.52	1.54692	1.83E-06
0.54	1.54533	2.09E-06
0.56	1.54389	2.20E-06
0.58	1.54275	2.34E-06
0.60	1.54137	2.15E-06
0.62	1.54073	1.90E-06
0.64	1.53987	1.68E-06
0.66	1.53946	1.44E-06
0.68	1.53812	1.14E-06
0.70	1.53754	8.96E-07
0.72	1.53732	7.67E-07
0.74	1.53593	7.07E-07
0.76	1.53569	6.66E-07
0.78	1.53526	6.47E-07
0.80	1.53569	6.16E-07
0.82	1.53471	5.30E-07
0.84	1.53362	5.10E-07
0.86	1.53466	4.50E-07
0.88	1.53413	1.08E-06
0.90	1.53383	8.17E-07
0.92	1.53341	9.17E-07
0.94	1.53305	3.63E-07
0.96	1.53283	6.20E-07
0.98	1.53235	4.46E-07
1.00	1.53235	2.32E-07
1.02	1.53238	9.18E-07
1.04	1.53015	8.74E-07
1.06	1.52952	7.77E-07
1.08	1.53008	6.53E-07
1.10	1.52963	5.95E-07
1.12	1.52983	7.26E-07
1.14	1.52895	1.32E-06
1.16	1.52910	3.63E-06
1.18	1.52946	6.57E-06
1.20	1.52875	7.76E-06
1.22	1.52812	3.08E-06
1.24	1.52859	1.60E-06
1.26	1.52852	1.23E-06
1.28	1.52839	1.05E-06
1.30	1.52768	9.31E-07
1.32	1.52747	8.35E-07
1.34	1.52706	9.25E-07
1.36	1.52762	1.56E-06
1.38	1.52732	5.17E-06
1.40	1.52748	7.58E-06
1.42	1.52708	8.18E-06
1.44	1.52688	5.30E-06
1.46	1.52657	3.61E-06
1.48	1.52733	2.20E-06
1.50	1.52642	2.36E-06
1.52	1.52618	2.24E-06
1.54	1.52599	1.85E-06
1.56	1.52669	1.90E-06
1.58	1.52656	1.85E-06
1.60	1.52653	1.98E-06
1.62	1.52614	2.31E-06
1.64	1.52614	2.66E-06
1.66	1.52566	4.75E-06
1.68	1.52498	9.27E-06
1.70	1.52666	5.29E-05
1.72	1.52844	1.16E-04
1.74	1.52651	6.80E-05
1.76	1.52591	5.63E-05
1.78	1.52617	4.47E-05
1.80	1.52719	3.24E-05
1.82	1.52770	3.04E-05
1.84	1.52520	2.94E-05
1.86	1.52662	2.71E-05
1.88	1.52753	2.18E-05
1.90	1.52628	2.46E-05
1.92	1.52441	1.98E-05
1.94	1.52659	2.00E-05
1.96	1.52698	1.89E-05
1.98	1.52828	1.77E-05
2.00	1.52604	1.72E-05
2.0190	1.52418	2.86E-05
2.0381	1.52308	3.93E-05
2.0575	1.52058	3.99E-05
2.0773	1.52145	3.90E-05
2.0975	1.52474	3.87E-05
2.1180	1.52618	4.10E-05
2.1390	1.52390	4.56E-05
2.1568	1.52611	4.58E-05
2.1785	1.52529	4.49E-05
2.1970	1.52606	4.80E-05
2.2196	1.52563	6.16E-05
2.2387	1.52525	8.95E-05
2.2582	1.52440	1.44E-04
2.2781	1.52484	2.25E-03
2.2983	1.52525	2.00E-03
2.3188	1.52594	2.13E-03
2.3398	1.52531	3.91E-03
2.3568	1.52485	3.62E-03
2.3784	1.52617	2.34E-03
2.3960	1.52643	3.01E-03
2.4183	1.52635	1.86E-03
2.4365	1.52471	1.68E-03
2.4596	1.52546	2.20E-03
2.4784	1.52627	2.49E-03
2.4975	1.52702	3.96E-03
2.5169	1.52674	2.42E-03
2.5366	1.52486	2.30E-03
2.5567	1.52610	2.58E-03
2.5770	1.52649	2.40E-03
2.5976	1.52561	3.39E-03
2.6186	1.52403	2.89E-03
2.6400	1.52412	2.44E-03
2.6562	1.52626	2.62E-03
2.6782	1.52708	2.85E-03
2.6949	1.52441	2.71E-03
2.7175	1.52536	2.13E-03
2.7347	1.52457	1.93E-03
2.7579	1.52457	2.58E-03
2.7756	1.52482	2.84E-03
2.7996	1.52614	3.39E-03
2.8179	1.52326	2.77E-03
2.8364	1.52407	2.72E-03
2.8551	1.52563	2.51E-03
2.8741	1.52527	3.09E-03
2.8998	1.52502	3.91E-03
2.9194	1.52398	3.04E-03
2.9393	1.52529	2.66E-03
2.9594	1.52565	2.50E-03
2.9798	1.52349	2.22E-03
2.9936	1.52339	2.85E-03
3.0145	1.52475	3.39E-03
3.0357	1.52536	2.63E-03
3.0571	1.52548	1.83E-03
3.0789	1.52480	2.34E-03
3.0936	1.52488	2.37E-03
3.1159	1.52501	2.28E-03
3.1386	1.52508	1.58E-03
3.1538	1.52435	1.74E-03
3.1770	1.52397	1.67E-03
3.1927	1.52405	2.05E-03
3.2164	1.52328	2.15E-03
3.2325	1.52324	2.81E-03
3.2569	1.52240	1.78E-03
3.2733	1.52275	1.96E-03
3.2983	1.52092	2.12E-03
3.3152	1.52021	2.65E-03
3.3322	1.51867	3.74E-03
3.3581	1.51761	8.01E-03
3.3756	1.52060	1.10E-02
3.3933	1.52256	1.14E-02
3.4111	1.52310	1.32E-02
3.4383	1.53189	1.33E-02
3.4566	1.53433	7.49E-03
3.4751	1.53118	4.65E-03
3.4939	1.52903	5.76E-03
3.5128	1.53012	5.21E-03
3.5320	1.52906	2.85E-03
3.5513	1.52830	3.16E-03
3.5709	1.52899	2.15E-03
3.5907	1.52920	1.35E-03
3.6107	1.52763	1.75E-03
3.6309	1.52680	1.76E-03
3.6513	1.52650	1.69E-03
3.6720	1.52648	2.24E-03
3.6930	1.52699	2.15E-03
3.7141	1.52646	1.37E-03
3.7355	1.52675	1.82E-03
3.7572	1.52562	2.20E-03
3.7791	1.52587	1.86E-03
3.8013	1.52541	1.82E-03
3.8237	1.52571	1.76E-03
3.8464	1.52587	1.70E-03
3.8693	1.52584	1.81E-03
3.8926	1.52595	2.23E-03
3.9161	1.52552	2.19E-03
3.9399	1.52570	1.94E-03
3.9640	1.52565	1.47E-03
3.9884	1.52552	1.73E-03
4.0131	1.52561	2.20E-03
4.0381	1.52517	1.99E-03
4.0634	1.52512	2.01E-03
4.0890	1.52499	1.74E-03
4.1150	1.52450	2.03E-03
4.1413	1.52456	1.91E-03
4.1679	1.52466	1.77E-03
4.1949	1.52454	2.16E-03
4.2222	1.52343	1.85E-03
4.2499	1.52331	2.42E-03
4.2780	1.52354	2.04E-03
4.3064	1.52401	1.26E-03
4.3352	1.52448	1.78E-03
4.3644	1.52407	2.07E-03
4.3940	1.52389	2.07E-03
4.4240	1.52348	2.26E-03
4.4544	1.52451	2.03E-03
4.4852	1.52460	2.08E-03
4.5165	1.52381	1.95E-03
4.5482	1.52396	1.57E-03
4.5803	1.52341	1.43E-03
4.6129	1.52354	1.42E-03
4.6460	1.52333	1.79E-03
4.6795	1.52369	1.79E-03
4.7136	1.52312	1.89E-03
4.7481	1.52303	1.46E-03
4.7831	1.52323	1.51E-03
4.8187	1.52241	1.87E-03
4.8548	1.52245	1.27E-03
4.8914	1.52220	1.63E-03
4.9286	1.52211	1.58E-03
4.9664	1.52208	1.70E-03
5.0047	1.52213	1.83E-03
5.0437	1.52198	1.67E-03
5.0832	1.52172	1.89E-03
5.1234	1.52151	2.05E-03
5.1643	1.52142	2.17E-03
5.2057	1.52049	1.98E-03
5.2479	1.52033	1.59E-03
5.2907	1.52062	1.93E-03
5.3343	1.52037	1.88E-03
5.3785	1.52000	1.81E-03
5.4235	1.51986	2.01E-03
5.4693	1.51964	2.24E-03
5.5159	1.51931	2.18E-03
5.5632	1.51785	2.05E-03
5.6114	1.51683	2.22E-03
5.6604	1.51618	3.25E-03
5.7103	1.51353	4.46E-03
5.7610	1.51485	1.10E-02
5.8127	1.52339	1.18E-02
5.8653	1.52478	5.13E-03
5.9188	1.52190	2.86E-03
5.9734	1.52065	2.52E-03
6.0290	1.52012	2.60E-03
6.0856	1.51925	2.21E-03
6.1433	1.51801	1.95E-03
6.2020	1.51755	2.04E-03
6.2620	1.51657	2.87E-03
6.3231	1.51595	2.71E-03
6.3854	1.51628	2.33E-03
6.4489	1.51505	2.31E-03
6.5137	1.51367	2.71E-03
6.5798	1.51202	1.76E-03
6.6473	1.50856	1.87E-03
6.7162	1.50649	3.38E-03
6.7865	1.50318	4.35E-03
6.8583	1.49962	7.56E-03
6.9317	1.49086	2.05E-02
7.0066	1.51617	3.76E-02
7.0832	1.52698	1.29E-02
7.1615	1.51417	6.59E-03
7.2415	1.50858	1.13E-02
7.3233	1.50512	1.36E-02
7.4070	1.50151	1.88E-02
7.4926	1.50218	3.25E-02
7.5803	1.51611	2.92E-02
7.6700	1.51363	2.33E-02
7.7618	1.50856	2.42E-02
7.8559	1.49895	3.43E-02
7.9523	1.51268	5.88E-02
8.0511	1.54059	5.38E-02
8.1524	1.55173	3.26E-02
8.2562	1.53853	2.01E-02
8.3628	1.53908	2.38E-02
8.4721	1.53965	1.45E-02
8.5843	1.53557	1.20E-02
8.6995	1.52975	1.01E-02
8.8179	1.52414	1.16E-02
8.9395	1.52211	1.72E-02
9.0645	1.52387	2.31E-02
9.1931	1.53066	2.17E-02
9.3254	1.53201	1.99E-02
9.4615	1.53125	1.49E-02
9.6017	1.52766	1.23E-02
9.7461	1.52428	1.41E-02
9.8949	1.51946	1.44E-02
10.048	1.51730	1.87E-02
10.207	1.51457	2.98E-02
10.370	1.52929	4.07E-02
10.538	1.54351	3.10E-02
10.713	1.54319	2.14E-02
10.893	1.54380	1.92E-02
11.079	1.53927	1.37E-02
11.272	1.53791	1.25E-02
11.471	1.53642	1.20E-02
11.678	1.53504	1.24E-02
11.892	1.53267	1.31E-02
12.114	1.53733	7.79E-03
12.345	1.53192	3.19E-03
12.585	1.52563	3.93E-03
12.834	1.52083	5.53E-03
13.093	1.51941	5.32E-03
13.363	1.51318	6.78E-03
13.645	1.50841	1.15E-02
13.938	1.49857	1.80E-02
14.244	1.49796	3.74E-02
14.564	1.51563	4.38E-02
14.899	1.52340	3.35E-02
15.250	1.50001	4.01E-02
15.617	1.51306	7.18E-02
16.003	1.54134	8.05E-02
16.408	1.58274	7.23E-02
16.834	1.59202	2.97E-02
17.283	1.57125	1.63E-02
17.757	1.56479	1.07E-02
18.257	1.55685	1.37E-02
18.786	1.55304	1.25E-02
19.347	1.54672	7.57E-03
19.942	1.54354	5.60E-03
