Material: inorganic / Lu2O3 / Yao
Optical constants. C. Yao, W. Shen, X. Hu, C. Hu. Optical properties of large-size and damage-free polished Lu2O3 single crystal covering the ultraviolet-visible-and near-infrared (UV–VIS–NIR) spectral region, J. Alloys Compd. 897, 162726 (2022)(see supplementary materials for numerical data)
Comments: Single crystal
Specs: {"n_absolute": true, "wavelength_vacuum": true}
wavelength (um)	n	k
0.210	2.318018	0.240511
0.213	2.379481	0.277232
0.216	2.492168	0.225962
0.219	2.496751	0.077679
0.222	2.411427	0.008667
0.225	2.347697	0
0.228	2.309825	0
0.231	2.281564	0
0.234	2.258510	0
0.237	2.238859	0
0.240	2.221661	0
0.243	2.206341	0
0.246	2.192523	0
0.249	2.179941	0
0.252	2.168403	0
0.255	2.157758	0
0.258	2.147892	0
0.261	2.138710	0
0.264	2.130135	0
0.267	2.122103	0
0.270	2.114560	0
0.273	2.107460	0
0.276	2.100761	0
0.279	2.094431	0
0.282	2.088438	0
0.285	2.082754	0
0.288	2.077357	0
0.291	2.072225	0
0.294	2.067338	0
0.297	2.062680	0
0.300	2.058234	0
0.303	2.053986	0
0.306	2.049925	0
0.309	2.046037	0
0.312	2.042312	0
0.315	2.038741	0
0.318	2.035314	0
0.321	2.032022	0
0.324	2.028859	0
0.327	2.025817	0
0.330	2.022890	0
0.333	2.020071	0
0.336	2.017354	0
0.339	2.014735	0
0.342	2.012208	0
0.345	2.009769	0
0.348	2.007414	0
0.351	2.005138	0
0.354	2.002938	0
0.357	2.000809	0
0.360	1.998750	0
0.363	1.996757	0
0.366	1.994826	0
0.369	1.992955	0
0.372	1.991142	0
0.375	1.989383	0
0.378	1.987678	0
0.381	1.986022	0
0.384	1.984415	0
0.387	1.982854	0
0.390	1.981338	0
0.393	1.979865	0
0.396	1.978433	0
0.399	1.977040	0
0.402	1.975685	0
0.405	1.974366	0
0.408	1.973083	0
0.411	1.971833	0
0.414	1.970616	0
0.417	1.969431	0
0.420	1.968276	0
0.423	1.967150	0
0.426	1.966052	0
0.429	1.964982	0
0.432	1.963938	0
0.435	1.962919	0
0.438	1.961924	0
0.441	1.960954	0
0.444	1.960006	0
0.447	1.959081	0
0.450	1.958177	0
0.453	1.957294	0
0.456	1.956430	0
0.459	1.955587	0
0.462	1.954762	0
0.465	1.953956	0
0.468	1.953167	0
0.471	1.952395	0
0.474	1.951640	0
0.477	1.950902	0
0.480	1.950179	0
0.483	1.949471	0
0.486	1.948778	0
0.489	1.948099	0
0.492	1.947435	0
0.495	1.946784	0
0.498	1.946146	0
0.501	1.945520	0
0.504	1.944908	0
0.507	1.944307	0
0.510	1.943718	0
0.513	1.943141	0
0.516	1.942575	0
0.519	1.942019	0
0.522	1.941474	0
0.525	1.940940	0
0.528	1.940415	0
0.531	1.939900	0
0.534	1.939395	0
0.537	1.938899	0
0.540	1.938412	0
0.543	1.937934	0
0.546	1.937464	0
0.549	1.937003	0
0.552	1.936550	0
0.555	1.936104	0
0.558	1.935667	0
0.561	1.935237	0
0.564	1.934815	0
0.567	1.934399	0
0.570	1.933991	0
0.573	1.933590	0
0.576	1.933195	0
0.579	1.932807	0
0.582	1.932425	0
0.585	1.932050	0
0.588	1.931680	0
0.591	1.931317	0
0.594	1.930959	0
0.597	1.930608	0
0.600	1.930261	0
0.603	1.929921	0
0.606	1.929585	0
0.609	1.929255	0
0.612	1.928930	0
0.615	1.928610	0
0.618	1.928295	0
0.621	1.927984	0
0.624	1.927678	0
0.627	1.927377	0
0.630	1.927080	0
0.633	1.926788	0
0.636	1.926500	0
0.639	1.926216	0
0.642	1.925936	0
0.645	1.925661	0
0.648	1.925389	0
0.651	1.925121	0
0.654	1.924857	0
0.657	1.924597	0
0.660	1.924340	0
0.663	1.924087	0
0.666	1.923837	0
0.669	1.923591	0
0.672	1.923348	0
0.675	1.923109	0
0.678	1.922873	0
0.681	1.922639	0
0.684	1.922409	0
0.687	1.922182	0
0.690	1.921958	0
0.693	1.921737	0
0.696	1.921519	0
0.699	1.921304	0
0.702	1.921092	0
0.705	1.920882	0
0.708	1.920675	0
0.711	1.920470	0
0.714	1.920268	0
0.717	1.920069	0
0.720	1.919872	0
0.723	1.919677	0
0.726	1.919485	0
0.729	1.919295	0
0.732	1.919108	0
0.735	1.918923	0
0.738	1.918740	0
0.741	1.918559	0
0.744	1.918381	0
0.747	1.918204	0
0.750	1.918030	0
0.753	1.917857	0
0.756	1.917687	0
0.759	1.917519	0
0.762	1.917352	0
0.765	1.917188	0
0.768	1.917025	0
0.771	1.916864	0
0.774	1.916705	0
0.777	1.916548	0
0.780	1.916392	0
0.783	1.916239	0
0.786	1.916086	0
0.789	1.915936	0
0.792	1.915787	0
0.795	1.915640	0
0.798	1.915494	0
0.801	1.915350	0
0.804	1.915208	0
0.807	1.915067	0
0.810	1.914927	0
0.813	1.914789	0
0.816	1.914653	0
0.819	1.914518	0
0.822	1.914384	0
0.825	1.914251	0
0.828	1.914120	0
0.831	1.913990	0
0.834	1.913862	0
0.837	1.913735	0
0.840	1.913609	0
0.843	1.913484	0
0.846	1.913361	0
0.849	1.913239	0
0.852	1.913117	0
0.855	1.912998	0
0.858	1.912879	0
0.861	1.912761	0
0.864	1.912645	0
0.867	1.912529	0
0.870	1.912415	0
0.873	1.912302	0
0.876	1.912190	0
0.879	1.912079	0
0.882	1.911969	0
0.885	1.911860	0
0.888	1.911752	0
0.891	1.911644	0
0.894	1.911538	0
0.897	1.911433	0
0.900	1.911329	0
0.903	1.911225	0
0.906	1.911123	0
0.909	1.911021	0
0.912	1.910921	0
0.915	1.910821	0
0.918	1.910722	0
0.921	1.910624	0
0.924	1.910527	0
0.927	1.910430	0
0.930	1.910335	0
0.933	1.910240	0
0.936	1.910146	0
0.939	1.910053	0
0.942	1.909960	0
0.945	1.909869	0
0.948	1.909778	0
0.951	1.909688	0
0.954	1.909598	0
0.957	1.909509	0
0.960	1.909421	0
0.963	1.909334	0
0.966	1.909247	0
0.969	1.909161	0
0.972	1.909076	0
0.975	1.908991	0
0.978	1.908907	0
0.981	1.908823	0
0.984	1.908741	0
0.987	1.908659	0
0.990	1.908577	0
0.993	1.908496	0
0.996	1.908416	0
0.999	1.908336	0
1.0050	1.908178	0
1.0125	1.907984	0
1.0200	1.907794	0
1.0275	1.907607	0
1.0350	1.907423	0
1.0425	1.907242	0
1.0500	1.907064	0
1.0575	1.906889	0
1.0650	1.906717	0
1.0725	1.906548	0
1.0800	1.906381	0
1.0875	1.906217	0
1.0950	1.906055	0
1.1025	1.905896	0
1.1100	1.905739	0
1.1175	1.905585	0
1.1250	1.905433	0
1.1325	1.905282	0
1.1400	1.905134	0
1.1475	1.904988	0
1.1550	1.904844	0
1.1625	1.904702	0
1.1700	1.904561	0
1.1775	1.904423	0
1.1850	1.904286	0
1.1925	1.904151	0
1.2000	1.904017	0
1.2075	1.903885	0
1.2150	1.903755	0
1.2225	1.903626	0
1.2300	1.903498	0
1.2375	1.903372	0
1.2450	1.903248	0
1.2525	1.903124	0
1.2600	1.903002	0
1.2675	1.902881	0
1.2750	1.902762	0
1.2825	1.902643	0
1.2900	1.902526	0
1.2975	1.902410	0
1.3050	1.902295	0
1.3125	1.902181	0
1.3200	1.902068	0
1.3275	1.901956	0
1.3350	1.901845	0
1.3425	1.901735	0
1.3500	1.901626	0
1.3575	1.901518	0
1.3650	1.901410	0
1.3725	1.901304	0
1.3800	1.901198	0
1.3875	1.901093	0
1.3950	1.900989	0
1.4025	1.900885	0
1.4100	1.900783	0
1.4175	1.900681	0
1.4250	1.900579	0
1.4325	1.900479	0
1.4400	1.900379	0
1.4475	1.900279	0
1.4550	1.900181	0
1.4625	1.900082	0
1.4700	1.899985	0
1.4775	1.899888	0
1.4850	1.899791	0
1.4925	1.899695	0
1.5000	1.899600	0
1.5075	1.899505	0
1.5150	1.899411	0
1.5225	1.899317	0
1.5300	1.899223	0
1.5375	1.899130	0
1.5450	1.899037	0
1.5525	1.898945	0
1.5600	1.898853	0
1.5675	1.898762	0
1.5750	1.898671	0
1.5825	1.898580	0
1.5900	1.898489	0
1.5975	1.898399	0
1.6050	1.898310	0
1.6125	1.898220	0
1.6200	1.898131	0
1.6275	1.898043	0
1.6350	1.897954	0
1.6425	1.897866	0
1.6500	1.897778	0
1.6575	1.897690	0
1.6650	1.897603	0
1.6725	1.897516	0
1.6800	1.897429	0
1.6875	1.897342	0
