Material: main / Mg / Palm
Optical constants. K. J. Palm, J. B. Murray, T. C. Narayan, J. N. Munday. Dynamic optical properties of metal hydrides, ACS Photonics 5, 4677-4686 (2018)(Numerical data kindly provided by Kevin Palm)
Comments: Magnesium, Room temperature, 25 nm thin film, electron beam evaporated, vacuum annealed 2 hr 350 Â°C.
wavelength (um)	n	k
0.250019531	0.158582	1.933476
0.253212234	0.157953	1.966482
0.256404968	0.15517	2.00143
0.259597809	0.153462	2.040338
0.262790649	0.156135	2.0797
0.265983551	0.160385	2.116147
0.269176483	0.163653	2.151044
0.272369446	0.166126	2.1857
0.275562469	0.167918	2.220368
0.278755524	0.16875	2.255854
0.281948608	0.170073	2.293647
0.285141693	0.174752	2.332382
0.288334839	0.182151	2.368058
0.291527985	0.188494	2.400055
0.29472113	0.192003	2.43095
0.297914307	0.193378	2.462477
0.301107483	0.193493	2.495394
0.30430069	0.193292	2.529925
0.307493866	0.19355	2.565766
0.310687073	0.194513	2.602433
0.31388028	0.196233	2.6397
0.317073456	0.198921	2.677467
0.320266632	0.20297	2.715333
0.323459808	0.208485	2.75222
0.326652954	0.214099	2.787208
0.32984613	0.218083	2.820974
0.333039246	0.219995	2.855928
0.33623233	0.221997	2.89339
0.339425385	0.226358	2.932351
0.342618439	0.233094	2.969713
0.345811462	0.239227	3.004481
0.349004425	0.24185	3.038648
0.352197357	0.24154	3.077401
0.355390259	0.243693	3.122515
0.358583099	0.253519	3.171388
0.361775909	0.272809	3.216655
0.364968658	0.296256	3.253304
0.368161346	0.318097	3.281198
0.371353973	0.333641	3.303896
0.37454657	0.343147	3.326658
0.377739075	0.349051	3.351643
0.380931549	0.353658	3.379289
0.384123932	0.358505	3.408558
0.387316223	0.363656	3.438494
0.390508484	0.368958	3.468723
0.393700623	0.374265	3.499068
0.396892731	0.379409	3.529441
0.400084717	0.384198	3.559874
0.403276642	0.388447	3.59051
0.406468445	0.391986	3.621662
0.409660156	0.394955	3.653938
0.412851807	0.397965	3.687644
0.416043304	0.401624	3.722728
0.419234772	0.406483	3.758906
0.422426086	0.412925	3.79554
0.425617279	0.420783	3.831995
0.428808411	0.429761	3.86796
0.43199942	0.439585	3.903277
0.435190277	0.450001	3.937879
0.438381012	0.460796	3.971777
0.441571625	0.471803	4.005017
0.444762146	0.482869	4.037666
0.447952545	0.493856	4.069837
0.451142761	0.504628	4.101727
0.454332855	0.515242	4.133698
0.457522858	0.526021	4.165933
0.460712708	0.537293	4.198411
0.463902405	0.549365	4.230981
0.467091888	0.562531	4.263346
0.470281311	0.57695	4.294892
0.47347052	0.592224	4.325023
0.476659607	0.607825	4.353522
0.479848541	0.623257	4.380364
0.483037292	0.638059	4.405664
0.486225891	0.65179	4.429691
0.489414307	0.664176	4.452973
0.492602539	0.675317	4.475969
0.495790619	0.68537	4.49894
0.498978516	0.694488	4.522061
0.50216626	0.702818	4.545453
0.505353821	0.710497	4.569201
0.508541168	0.717656	4.593364
0.511728333	0.724429	4.617981
0.514915283	0.730942	4.643062
0.518102051	0.737318	4.668593
0.521288696	0.743667	4.694542
0.524475037	0.750096	4.720854
0.527661255	0.756707	4.747442
0.530847168	0.763563	4.774148
0.534032959	0.770608	4.80083
0.537218506	0.777762	4.827417
0.540403809	0.784947	4.853875
0.543588928	0.792089	4.880196
0.546773804	0.799117	4.906391
0.549958496	0.805961	4.932497
0.553142944	0.81256	4.958587
0.556327148	0.81892	4.984776
0.559511108	0.825097	5.011127
0.562694824	0.831145	5.037673
0.565878296	0.837119	5.064429
0.569061646	0.843068	5.091398
0.572244629	0.849041	5.118572
0.575427368	0.855083	5.145933
0.578609863	0.861236	5.173444
0.581792114	0.867517	5.201053
0.584974121	0.873917	5.22872
0.588155884	0.880423	5.256422
0.591337341	0.887023	5.284139
0.594518555	0.893706	5.311861
0.597699524	0.90046	5.339578
0.600880188	0.907274	5.367282
0.604060608	0.914137	5.394971
0.607240723	0.921039	5.422642
0.610420532	0.92797	5.450294
0.613600098	0.934922	5.477929
0.616779358	0.941888	5.505549
0.619958374	0.94886	5.533156
0.623137024	0.955829	5.560755
0.62631543	0.96279	5.58835
0.62949353	0.969736	5.615949
0.632671265	0.976658	5.643561
0.635848755	0.98355	5.671197
0.639026001	0.990406	5.698877
0.64220282	0.997234	5.726629
0.645379395	1.004053	5.754467
0.648555664	1.010882	5.782398
0.651731567	1.017738	5.810425
0.654907166	1.024637	5.838549
0.658082458	1.031596	5.866767
0.661257446	1.038629	5.895074
0.664432007	1.045749	5.923463
0.667606323	1.05297	5.951926
0.670780273	1.060303	5.980451
0.673953857	1.06776	6.009021
0.677127136	1.075341	6.037615
0.680300049	1.083041	6.066218
0.683472656	1.090855	6.09482
0.686644897	1.098776	6.123414
0.689816772	1.106799	6.15199
0.69298822	1.114917	6.180547
0.696159424	1.123126	6.209078
0.6993302	1.131419	6.237581
0.70250061	1.13979	6.266053
0.705670715	1.148235	6.294493
0.708840393	1.156747	6.322899
0.712009705	1.165322	6.351274
0.715178589	1.173955	6.379619
0.718347168	1.182644	6.407935
0.721515381	1.191388	6.436224
0.724683167	1.200183	6.464485
0.727850525	1.209029	6.49272
0.731017578	1.217922	6.52093
0.734184204	1.226861	6.549116
0.737350403	1.235843	6.577278
0.740516235	1.244866	6.605418
0.743681641	1.253929	6.633538
0.746846619	1.263028	6.66164
0.75001123	1.272161	6.689727
0.753175415	1.281326	6.717803
0.756339233	1.290519	6.745874
0.759502563	1.299744	6.77395
0.762665527	1.309005	6.802035
0.765828003	1.31831	6.830133
0.768990112	1.327663	6.858246
0.772151733	1.33707	6.886372
0.775312988	1.346536	6.914513
0.778473755	1.356066	6.942666
0.781634155	1.365664	6.970831
0.784794067	1.375333	6.999004
0.787953552	1.385078	7.027184
0.79111261	1.394902	7.055366
0.794271118	1.404808	7.083548
0.797429321	1.4148	7.111726
0.800586975	1.424879	7.139895
0.803744202	1.43505	7.168049
0.80690094	1.445313	7.196179
0.810057251	1.455665	7.224277
0.813213013	1.466101	7.252337
0.816368408	1.476617	7.280356
0.819523254	1.487207	7.308329
0.822677734	1.497866	7.336257
0.825831665	1.50859	7.364135
0.828985046	1.519374	7.391964
0.832138062	1.530213	7.419745
0.835290527	1.541103	7.447476
0.838442505	1.552038	7.475158
0.841594055	1.563016	7.502794
0.844744995	1.57403	7.530384
0.847895508	1.585077	7.55793
0.851045593	1.596152	7.585438
0.854195007	1.607251	7.612907
0.857344055	1.61837	7.640345
0.860492554	1.629504	7.667757
0.863640503	1.640649	7.695153
0.866787964	1.65181	7.722543
0.869934937	1.662992	7.749934
0.87308136	1.674198	7.777329
0.876227356	1.685435	7.804732
0.879372681	1.696705	7.832145
0.882517456	1.708014	7.859568
0.885661804	1.719365	7.887005
0.888805664	1.730761	7.914455
0.891948914	1.742207	7.941918
0.895091614	1.753704	7.969394
0.898233765	1.765257	7.996885
0.901375366	1.776868	8.024387
0.904516479	1.788539	8.051904
0.907656921	1.800271	8.079432
0.910796997	1.81207	8.106972
0.91393634	1.823933	8.134522
0.917075195	1.835865	8.162085
0.920213501	1.847866	8.189657
0.923351257	1.859937	8.217242
0.926488403	1.872079	8.244839
0.929625	1.884295	8.27245
0.932760925	1.896588	8.300077
0.935896362	1.908965	8.327723
0.93903125	1.921429	8.355383
0.942165527	1.933984	8.383059
0.945299194	1.946635	8.410746
0.948432312	1.959386	8.438443
0.951564819	1.97224	8.466149
0.954696777	1.985199	8.49386
0.957828125	1.998269	8.521574
0.960958801	2.01145	8.549286
0.964088989	2.024746	8.576995
0.967218445	2.03816	8.604696
0.970347351	2.051693	8.632385
0.973475708	2.065348	8.66006
0.976603333	2.079127	8.687715
0.979730347	2.093032	8.715347
0.982856812	2.107064	8.742952
0.985982727	2.121225	8.770526
0.98910791	2.135517	8.798061
0.992232544	2.149941	8.825556
0.995356445	2.164499	8.853003
0.998479797	2.179191	8.880395
1.014837524	2.258326	9.022691
1.021614868	2.292042	9.080924
1.028394165	2.326206	9.138704
1.035175293	2.360749	9.19602
1.041958252	2.395603	9.252875
1.048743286	2.430706	9.309281
1.055530029	2.465997	9.365261
1.062318848	2.501415	9.420844
1.069109497	2.536903	9.476072
1.075901978	2.572402	9.530997
1.082696411	2.607853	9.58569
1.089492676	2.643192	9.640245
1.096290894	2.678381	9.694843
1.103091064	2.713515	9.74966
1.109893066	2.748719	9.804785
1.116697021	2.784117	9.860271
1.123502686	2.819822	9.916142
1.130310425	2.855946	9.9724
1.137119995	2.892586	10.029034
1.143931396	2.929838	10.08602
1.150744873	2.967786	10.143325
1.157560059	3.006511	10.200907
1.164377197	3.046084	10.258717
1.171196289	3.086573	10.316697
1.178017212	3.128039	10.374787
1.184840088	3.170541	10.43292
1.191664795	3.214133	10.491012
1.198491455	3.25887	10.548967
1.205319946	3.304766	10.606648
1.212150269	3.351783	10.663949
1.218982666	3.399881	10.720793
1.225816772	3.449016	10.777115
1.232652954	3.499145	10.832866
1.239490845	3.550225	10.888002
1.246330811	3.602219	10.942492
1.253172485	3.655082	10.996303
1.260016113	3.708779	11.049413
1.266861572	3.763272	11.101804
1.273709106	3.818524	11.153461
1.28055835	3.874501	11.204375
1.287409668	3.931168	11.254539
1.294262695	3.988492	11.303949
1.301117676	4.046439	11.352609
1.307974609	4.104978	11.400527
1.314833374	4.164074	11.447717
1.321694092	4.22369	11.494203
1.328556519	4.283786	11.54004
1.335421021	4.344377	11.585321
1.342287354	4.405519	11.630098
1.349155518	4.467277	11.674401
1.356025635	4.529712	11.718236
1.362897705	4.592886	11.761601
1.369771606	4.656861	11.804486
1.376647339	4.721695	11.846869
1.383525024	4.787444	11.888723
1.390404541	4.854166	11.930016
1.397285889	4.921912	11.970708
1.404169312	4.990741	12.010756
1.411054443	5.060703	12.050111
1.41794165	5.131853	12.088719
1.424830688	5.204244	12.126522
1.431721436	5.277929	12.163453
1.438614258	5.352967	12.199443
1.445508911	5.429415	12.23441
1.452405518	5.507338	12.268271
1.459303955	5.586801	12.300925
1.466204224	5.66788	12.33226
1.473106323	5.75066	12.362142
1.480010498	5.835247	12.390403
1.486916382	5.921776	12.416799
1.493824341	6.010282	12.440893
1.500734131	6.100558	12.462318
1.507645752	6.192359	12.480829
1.514559204	6.285438	12.496251
1.521474609	6.37955	12.508456
1.528391846	6.47446	12.517352
1.535311035	6.569942	12.522874
1.542232056	6.665776	12.524979
1.549155029	6.761756	12.523643
1.556079834	6.857681	12.518857
1.563006592	6.953362	12.510623
1.569935181	7.048615	12.498956
1.576865601	7.143265	12.483876
1.583797974	7.237142	12.465414
1.590732178	7.330086	12.443606
1.597668335	7.421939	12.418494
1.604606323	7.512551	12.390124
1.611546143	7.601772	12.358547
1.618488037	7.68946	12.323818
1.625431641	7.775472	12.285996
1.632377197	7.859668	12.245145
1.639324585	7.94191	12.20133
1.646274048	8.022058	12.154623
1.65322522	8.099973	12.1051
1.660178101	8.175508	12.052845
1.667133179	8.248519	11.997943
1.674090088	8.318849	11.940498
1.681048584	8.386329	11.880628
