Material: main / Fe3O4 / Querry
Optical constants. M. R. Querry. Optical constants, Contractor Report CRDC-CR-85034 (1985)
Comments: Magnetite.
wavelength (um)	n	k
0.2100	2.256	0.085
0.2300	2.337	0.118
0.2500	2.387	0.114
0.2700	2.404	0.092
0.2900	2.397	0.088
0.3100	2.398	0.096
0.3300	2.409	0.105
0.3500	2.422	0.111
0.3700	2.447	0.108
0.3900	2.464	0.080
0.4100	2.453	0.047
0.4300	2.423	0.026
0.4500	2.386	0.032
0.4700	2.367	0.054
0.4900	2.364	0.067
0.5100	2.354	0.077
0.5300	2.346	0.091
0.5500	2.343	0.105
0.5700	2.342	0.118
0.5900	2.344	0.131
0.6100	2.350	0.141
0.6300	2.358	0.148
0.6500	2.366	0.138
0.6700	2.364	0.135
0.6900	2.359	0.127
0.7100	2.349	0.122
0.7300	2.336	0.119
0.7500	2.320	0.118
0.7700	2.303	0.120
0.7900	2.284	0.128
0.8100	2.272	0.134
0.8300	2.253	0.143
0.8500	2.236	0.155
0.8700	2.222	0.167
0.8900	2.205	0.181
0.9100	2.189	0.198
0.9300	2.175	0.215
0.9500	2.159	0.234
0.9700	2.146	0.255
0.9900	2.134	0.280
1.0100	2.125	0.305
1.0300	2.119	0.329
1.0500	2.114	0.353
1.0700	2.110	0.377
1.0900	2.107	0.401
1.1100	2.104	0.424
1.1300	2.102	0.450
1.1500	2.102	0.475
1.1700	2.103	0.500
1.1900	2.103	0.525
1.2100	2.114	0.554
1.2300	2.120	0.574
1.2500	2.126	0.595
1.2700	2.132	0.616
1.2900	2.139	0.637
1.3100	2.146	0.657
1.3300	2.153	0.678
1.3500	2.162	0.698
1.3700	2.171	0.718
1.3900	2.181	0.737
1.4100	2.192	0.757
1.4300	2.203	0.774
1.4500	2.215	0.791
1.4700	2.227	0.808
1.4900	2.240	0.824
1.5100	2.252	0.839
1.5300	2.265	0.852
1.5500	2.278	0.867
1.5700	2.290	0.879
1.5900	2.301	0.892
1.6100	2.314	0.904
1.6300	2.325	0.917
1.6500	2.337	0.929
1.6700	2.350	0.942
1.6900	2.364	0.953
1.7100	2.378	0.964
1.7300	2.391	0.974
1.7500	2.405	0.983
1.7700	2.419	0.991
1.7900	2.432	1.000
1.8100	2.446	1.004
1.8300	2.457	1.012
1.8500	2.471	1.017
1.8700	2.475	1.021
1.8900	2.487	1.033
1.9100	2.498	1.041
1.9300	2.510	1.048
1.9500	2.521	1.056
1.9700	2.532	1.061
1.9900	2.539	1.069
2.0100	2.558	1.084
2.0300	2.573	1.086
2.0500	2.586	1.089
2.0700	2.597	1.092
2.0900	2.608	1.095
2.1100	2.619	1.099
2.1300	2.629	1.102
2.1500	2.638	1.106
2.1700	2.648	1.110
2.1900	2.657	1.114
2.2100	2.666	1.118
2.2300	2.675	1.124
2.2500	2.685	1.131
2.2700	2.699	1.136
2.2900	2.713	1.137
2.3100	2.722	1.137
2.3300	2.730	1.140
2.3500	2.741	1.144
2.3700	2.751	1.144
2.3900	2.758	1.146
2.4100	2.767	1.149
2.4300	2.776	1.152
2.4500	2.785	1.156
2.4700	2.797	1.157
2.4900	2.805	1.158
2.5063	2.813	1.156
2.5189	2.816	1.160
2.5316	2.821	1.161
2.5445	2.825	1.161
2.5575	2.833	1.160
2.5707	2.837	1.162
2.5840	2.839	1.166
2.5974	2.843	1.166
2.6110	2.852	1.165
2.6247	2.857	1.167
2.6385	2.863	1.168
2.6525	2.867	1.171
2.6667	2.870	1.173
2.6810	2.879	1.176
2.6954	2.885	1.175
2.7100	2.894	1.176
2.7248	2.895	1.176
2.7397	2.900	1.176
2.7548	2.905	1.175
2.7701	2.913	1.176
2.7855	2.917	1.179
2.8011	2.923	1.177
2.8169	2.924	1.183
2.8329	2.933	1.194
2.8490	2.941	1.184
2.8653	2.945	1.185
2.8918	2.952	1.187
2.8986	2.961	1.186
2.9155	2.960	1.185
2.9326	2.967	1.186
2.9499	2.971	1.185
2.9674	2.979	1.189
2.9851	2.986	1.189
3.0030	2.993	1.188
3.0211	2.993	1.190
3.0395	3.003	1.191
3.0581	3.007	1.190
3.0769	3.013	1.195
3.0960	3.018	1.193
3.1153	3.024	1.191
3.1348	3.029	1.194
3.1546	3.037	1.194
3.1746	3.037	1.192
3.1949	3.044	1.197
3.2154	3.050	1.199
3.2362	3.060	1.198
3.2573	3.063	1.195
3.2787	3.066	1.195
3.3003	3.075	1.199
3.3223	3.080	1.203
3.3445	3.084	1.198
3.3670	3.093	1.198
3.3898	3.097	1.201
3.4130	3.101	1.201
3.4364	3.113	1.199
3.4602	3.114	1.200
3.4843	3.118	1.201
3.5088	3.125	1.202
3.5336	3.129	1.201
3.5587	3.135	1.201
3.5842	3.137	1.202
3.6101	3.148	1.208
3.6364	3.151	1.203
3.6630	3.153	1.205
3.6900	3.161	1.206
3.7175	3.168	1.210
3.7453	3.173	1.207
3.7736	3.180	1.213
3.8023	3.188	1.215
3.8314	3.193	1.209
3.8610	3.196	1.213
3.8911	3.207	1.215
3.9216	3.211	1.212
3.9526	3.216	1.216
3.9841	3.220	1.214
4.0161	3.226	1.219
4.0486	3.233	1.219
4.0816	3.239	1.219
4.1152	3.247	1.218
4.1494	3.253	1.220
4.1841	3.256	1.219
4.2017	3.260	1.224
4.2553	3.273	1.226
4.2918	3.280	1.223
4.3290	3.285	1.221
4.3668	3.292	1.223
4.4053	3.295	1.224
4.4444	3.300	1.225
4.4843	3.308	1.224
4.5249	3.314	1.228
4.5662	3.318	1.229
4.6083	3.330	1.229
4.6512	3.333	1.230
4.6948	3.338	1.231
4.7393	3.345	1.230
4.7847	3.351	1.236
4.8309	3.360	1.236
4.8780	3.369	1.235
4.9261	3.375	1.231
4.9751	3.382	1.234
5.0251	3.386	1.226
5.0761	3.387	1.228
5.1282	3.393	1.234
5.1813	3.397	1.234
5.2356	3.404	1.237
5.2910	3.410	1.236
5.3476	3.415	1.240
5.4054	3.419	1.239
5.4645	3.426	1.244
5.5249	3.432	1.245
5.5866	3.440	1.247
5.6497	3.443	1.250
5.7143	3.452	1.253
5.7803	3.459	1.252
5.8480	3.463	1.255
5.9172	3.471	1.256
5.9880	3.476	1.260
6.0606	3.479	1.261
6.1350	3.487	1.263
6.2112	3.491	1.267
6.2893	3.500	1.269
6.3694	3.506	1.268
6.4516	3.507	1.273
6.5359	3.520	1.276
6.6225	3.524	1.279
6.7114	3.528	1.282
6.8027	3.532	1.282
6.8966	3.536	1.290
6.9930	3.543	1.290
7.0922	3.548	1.293
7.1942	3.550	1.298
7.2993	3.558	1.304
7.4074	3.563	1.305
7.5188	3.567	1.307
7.6336	3.567	1.312
7.7519	3.569	1.319
7.8740	3.574	1.324
8.0000	3.574	1.331
8.1301	3.582	1.338
8.2645	3.579	1.346
8.4034	3.585	1.354
8.5470	3.582	1.363
8.6957	3.587	1.374
8.8496	3.587	1.381
9.0090	3.590	1.397
9.1743	3.592	1.405
9.3458	3.592	1.424
9.5238	3.592	1.442
9.7087	3.603	1.453
9.9010	3.601	1.464
10.1010	3.606	1.485
10.3093	3.607	1.502
10.5263	3.609	1.518
10.7527	3.609	1.532
10.9890	3.604	1.554
11.2360	3.599	1.573
11.4943	3.595	1.595
11.7647	3.582	1.627
12.0482	3.571	1.660
12.3457	3.561	1.693
12.6582	3.546	1.735
12.9870	3.522	1.787
13.3333	3.499	1.859
13.6986	3.489	1.947
14.0845	3.493	2.033
14.4928	3.492	2.129
14.9254	3.494	2.228
15.3846	3.484	2.348
15.8730	3.470	2.530
16.3934	3.454	2.761
16.9492	3.514	3.249
17.5439	4.372	3.907
18.1818	5.314	2.966
18.8679	4.902	2.383
19.6078	4.613	2.365
20.4082	4.456	2.460
21.2766	4.391	2.614
22.2222	4.373	2.776
23.2558	4.372	2.959
24.3902	4.361	3.224
25.6410	4.409	3.655
27.0270	4.668	4.392
28.5714	6.308	5.210
30.3030	7.272	3.268
32.2581	6.567	2.776
34.4828	6.342	2.858
37.0370	6.381	3.017
40.0000	6.485	3.185
43.4783	6.738	3.253
47.6190	7.124	3.331
52.6316	7.679	3.351
