Material: main / Ag / Jiang
Optical constants. Y. Jiang, S. Pillai, M. A. Green. Realistic silver optical constants for plasmonics, Sci. Rep. 6, 30605 (2016)(see supplementary materials for numerical data)
Comments: Improved dataset representative of overlayer-protected, freshly deposited and annealed Ag films on silicon-nitride and glass. Room temperature.
Specs: {"n_absolute": true, "wavelength_vacuum": true, "substrate": "SiO2/SiNx"}
wavelength (um)	n	k
0.300	1.619	0.591
0.305	1.554	0.413
0.310	1.389	0.231
0.315	1.117	0.143
0.320	0.890	0.174
0.325	0.684	0.222
0.330	0.472	0.313
0.335	0.299	0.483
0.340	0.212	0.663
0.345	0.168	0.815
0.350	0.142	0.943
0.355	0.124	1.054
0.360	0.111	1.154
0.365	0.100	1.246
0.370	0.092	1.331
0.375	0.085	1.411
0.380	0.079	1.486
0.385	0.074	1.558
0.390	0.070	1.627
0.395	0.067	1.693
0.400	0.064	1.757
0.405	0.061	1.819
0.410	0.059	1.880
0.415	0.057	1.939
0.420	0.055	1.996
0.425	0.053	2.052
0.430	0.052	2.108
0.435	0.051	2.162
0.440	0.050	2.215
0.445	0.049	2.267
0.450	0.048	2.319
0.455	0.048	2.370
0.460	0.047	2.420
0.465	0.047	2.470
0.470	0.047	2.519
0.475	0.046	2.567
0.480	0.046	2.615
0.485	0.046	2.663
0.490	0.046	2.710
0.495	0.046	2.757
0.500	0.046	2.803
0.505	0.046	2.849
0.510	0.046	2.895
0.515	0.047	2.940
0.520	0.047	2.985
0.525	0.047	3.029
0.530	0.047	3.074
0.535	0.048	3.118
0.540	0.048	3.162
0.545	0.049	3.205
0.550	0.049	3.248
0.555	0.050	3.292
0.560	0.050	3.334
0.565	0.050	3.377
0.570	0.051	3.420
0.575	0.052	3.462
0.580	0.052	3.504
0.585	0.053	3.546
0.590	0.053	3.588
0.595	0.054	3.630
0.600	0.054	3.671
0.605	0.055	3.712
0.610	0.056	3.754
0.615	0.056	3.795
0.620	0.057	3.836
0.625	0.058	3.876
0.630	0.058	3.917
0.635	0.059	3.958
0.640	0.060	3.998
0.645	0.061	4.039
0.650	0.061	4.079
0.655	0.062	4.119
0.660	0.063	4.159
0.665	0.064	4.199
0.670	0.064	4.239
0.675	0.065	4.279
0.680	0.066	4.319
0.685	0.067	4.358
0.690	0.068	4.398
0.695	0.068	4.437
0.700	0.069	4.477
0.705	0.070	4.516
0.710	0.071	4.555
0.715	0.072	4.594
0.720	0.073	4.633
0.725	0.074	4.672
0.730	0.074	4.711
0.735	0.075	4.750
0.740	0.076	4.789
0.745	0.077	4.828
0.750	0.078	4.867
0.755	0.079	4.905
0.760	0.080	4.944
0.765	0.081	4.982
0.770	0.082	5.021
0.775	0.083	5.059
0.780	0.084	5.098
0.785	0.085	5.136
0.790	0.086	5.175
0.795	0.087	5.213
0.800	0.088	5.251
0.805	0.089	5.289
0.810	0.090	5.327
0.815	0.091	5.366
0.820	0.092	5.404
0.825	0.093	5.442
0.830	0.094	5.480
0.835	0.095	5.518
0.840	0.096	5.555
0.845	0.097	5.593
0.850	0.098	5.631
0.855	0.099	5.669
0.860	0.100	5.707
0.865	0.101	5.744
0.870	0.102	5.782
0.875	0.103	5.820
0.880	0.104	5.857
0.885	0.105	5.895
0.890	0.106	5.933
0.895	0.108	5.970
0.900	0.109	6.008
0.905	0.110	6.045
0.910	0.111	6.083
0.915	0.112	6.120
0.920	0.113	6.157
0.925	0.114	6.195
0.930	0.116	6.232
0.935	0.117	6.270
0.940	0.118	6.307
0.945	0.119	6.344
0.950	0.120	6.381
0.955	0.122	6.419
0.960	0.123	6.456
0.965	0.124	6.493
0.970	0.125	6.530
0.975	0.126	6.567
0.980	0.128	6.604
0.985	0.129	6.642
0.990	0.130	6.679
0.995	0.131	6.716
1.000	0.133	6.753
1.005	0.134	6.790
1.010	0.135	6.827
1.015	0.136	6.864
1.020	0.138	6.901
1.025	0.139	6.938
1.030	0.140	6.975
1.035	0.142	7.011
1.040	0.143	7.048
1.045	0.144	7.085
1.050	0.145	7.122
1.055	0.147	7.159
1.060	0.148	7.196
1.065	0.149	7.233
1.070	0.151	7.269
1.075	0.152	7.306
1.080	0.153	7.343
1.085	0.155	7.380
1.090	0.156	7.416
1.095	0.158	7.453
1.100	0.159	7.490
1.105	0.160	7.526
1.110	0.162	7.563
1.115	0.163	7.600
1.120	0.165	7.636
1.125	0.166	7.673
1.130	0.167	7.710
1.135	0.169	7.746
1.140	0.170	7.783
1.145	0.172	7.819
1.150	0.173	7.856
1.155	0.175	7.893
1.160	0.176	7.929
1.165	0.178	7.966
1.170	0.179	8.002
1.175	0.180	8.039
1.180	0.182	8.075
1.185	0.183	8.112
1.190	0.185	8.148
1.195	0.186	8.185
1.200	0.188	8.221
1.205	0.189	8.257
1.210	0.191	8.294
1.215	0.193	8.330
1.220	0.194	8.367
1.225	0.196	8.403
1.230	0.197	8.439
1.235	0.199	8.476
1.240	0.200	8.512
1.245	0.202	8.549
1.250	0.203	8.585
1.255	0.205	8.621
1.260	0.207	8.658
1.265	0.208	8.694
1.270	0.210	8.730
1.275	0.211	8.766
1.280	0.213	8.803
1.285	0.215	8.839
1.290	0.216	8.875
1.295	0.218	8.912
1.300	0.219	8.948
1.305	0.221	8.984
1.310	0.223	9.020
1.315	0.224	9.056
1.320	0.226	9.093
1.325	0.228	9.129
1.330	0.229	9.165
1.335	0.231	9.201
1.340	0.233	9.237
1.345	0.234	9.274
1.350	0.236	9.310
1.355	0.238	9.346
1.360	0.240	9.382
1.365	0.241	9.418
1.370	0.243	9.454
1.375	0.245	9.491
1.380	0.247	9.527
1.385	0.248	9.563
1.390	0.250	9.599
1.395	0.252	9.635
1.400	0.254	9.671
1.405	0.255	9.707
1.410	0.257	9.743
1.415	0.259	9.779
1.420	0.261	9.815
1.425	0.262	9.851
1.430	0.264	9.888
1.435	0.266	9.924
1.440	0.268	9.960
1.445	0.270	9.996
1.450	0.271	10.032
1.455	0.273	10.068
1.460	0.275	10.104
1.465	0.277	10.140
1.470	0.279	10.176
1.475	0.281	10.212
1.480	0.283	10.248
1.485	0.284	10.284
1.490	0.286	10.320
1.495	0.288	10.356
1.500	0.290	10.392
1.505	0.292	10.428
1.510	0.294	10.464
1.515	0.296	10.500
1.520	0.298	10.535
1.525	0.300	10.571
1.530	0.302	10.607
1.535	0.303	10.643
1.540	0.305	10.679
1.545	0.307	10.715
1.550	0.309	10.751
1.555	0.311	10.787
1.560	0.313	10.823
1.565	0.315	10.859
1.570	0.317	10.895
1.575	0.319	10.931
1.580	0.321	10.966
1.585	0.323	11.002
1.590	0.325	11.038
1.595	0.327	11.074
1.600	0.329	11.110
1.605	0.331	11.146
1.610	0.333	11.182
1.615	0.335	11.217
1.620	0.337	11.253
1.625	0.339	11.289
1.630	0.341	11.325
1.635	0.343	11.361
1.640	0.346	11.397
1.645	0.348	11.432
1.650	0.350	11.468
1.655	0.352	11.504
1.660	0.354	11.540
1.665	0.356	11.576
1.670	0.358	11.611
1.675	0.360	11.647
1.680	0.362	11.683
1.685	0.364	11.719
1.690	0.366	11.755
1.695	0.369	11.790
1.700	0.371	11.826
1.705	0.373	11.862
1.710	0.375	11.898
1.715	0.377	11.933
1.720	0.379	11.969
1.725	0.382	12.005
1.730	0.384	12.041
1.735	0.386	12.076
1.740	0.388	12.112
1.745	0.390	12.148
1.750	0.392	12.184
1.755	0.395	12.219
1.760	0.397	12.255
1.765	0.399	12.291
1.770	0.401	12.327
1.775	0.404	12.362
1.780	0.406	12.398
1.785	0.408	12.434
1.790	0.410	12.469
1.795	0.413	12.505
1.800	0.415	12.541
1.805	0.417	12.576
1.810	0.419	12.612
1.815	0.422	12.648
1.820	0.424	12.684
1.825	0.426	12.719
1.830	0.429	12.755
1.835	0.431	12.791
1.840	0.433	12.826
1.845	0.435	12.862
1.850	0.438	12.898
1.855	0.440	12.933
1.860	0.442	12.969
1.865	0.445	13.004
1.870	0.447	13.040
1.875	0.450	13.076
1.880	0.452	13.111
1.885	0.454	13.147
1.890	0.457	13.183
1.895	0.459	13.218
1.900	0.461	13.254
1.905	0.464	13.290
1.910	0.466	13.325
1.915	0.469	13.361
1.920	0.471	13.396
1.925	0.473	13.432
1.930	0.476	13.468
1.935	0.478	13.503
1.940	0.481	13.539
1.945	0.483	13.574
1.950	0.486	13.610
1.955	0.488	13.646
1.960	0.491	13.681
1.965	0.493	13.717
1.970	0.496	13.752
1.975	0.498	13.788
1.980	0.500	13.823
1.985	0.503	13.859
1.990	0.505	13.895
1.995	0.508	13.930
2.000	0.510	13.966
