Material: main / Ag / Wu
Optical constants. Y. Wu, C. Zhang, N. M. Estakhri, Y. Zhao, J. Kim, M. Zhang, X. X. Liu, G. K. Pribil, A. Al√π, C. K. Shih, X. Li. Intrinsic optical properties and enhanced plasmonic response of epitaxial silver, Adv. Mater. 26, 6106-6110 (2014) (see Supporting informatoin for numerical data)
Comments: Abstract: Using atomically smooth epitaxial silver films, new optical permittivity highlighting significant loss reduction in the visible frequency range is extracted. Largely enhanced propagation distances of surface plasmon polaritons are measured, confirming the low intrinsic loss in silver. The new permittivity is free of extrinsic spectral features associated with grain boundaries and localized plasmons inevitably present in thermally deposited films.
wavelength (um)	n	k
0.287493	1.563903	1.305356
0.290688	1.601122	1.256838
0.293878	1.633876	1.189349
0.297068	1.654832	1.101894
0.300255	1.656109	0.996794
0.303444	1.630915	0.879537
0.306641	1.574833	0.757890
0.309829	1.486491	0.640434
0.313020	1.366941	0.535283
0.316214	1.218708	0.449164
0.319407	1.043865	0.387986
0.322598	0.842354	0.359249
0.325786	0.612813	0.381234
0.328975	0.382743	0.495542
0.332166	0.240065	0.678440
0.335364	0.174238	0.843474
0.338551	0.140550	0.978440
0.341743	0.120704	1.091178
0.344937	0.107594	1.188308
0.348133	0.098118	1.274177
0.351320	0.090798	1.351682
0.354514	0.084868	1.422745
0.357705	0.079899	1.488752
0.360902	0.075639	1.550652
0.364092	0.071926	1.609153
0.367284	0.068650	1.664816
0.370478	0.065731	1.718057
0.373671	0.063108	1.769176
0.376863	0.060737	1.818485
0.380051	0.058581	1.866208
0.383247	0.056615	1.912487
0.386436	0.054810	1.957499
0.389630	0.053149	2.001356
0.392827	0.051617	2.044203
0.396014	0.050199	2.086102
0.399215	0.048885	2.127155
0.402402	0.047661	2.167411
0.405601	0.046521	2.206981
0.408798	0.045457	2.245878
0.411990	0.044465	2.284158
0.415177	0.043534	2.321873
0.418371	0.042663	2.359051
0.421557	0.041847	2.395757
0.424749	0.041079	2.432013
0.427945	0.040358	2.467819
0.431144	0.039681	2.503233
0.434331	0.039042	2.538272
0.437519	0.038442	2.572951
0.440723	0.037876	2.607304
0.443910	0.037345	2.641343
0.447096	0.036842	2.675081
0.450295	0.036368	2.708528
0.453490	0.035923	2.741713
0.456681	0.035502	2.774646
0.459865	0.035105	2.807318
0.463060	0.034732	2.839772
0.466264	0.034380	2.872017
0.469442	0.034047	2.904042
0.472645	0.033734	2.935871
0.475837	0.033441	2.967494
0.479018	0.033165	2.998950
0.482222	0.032905	3.030228
0.485413	0.032661	3.061334
0.488588	0.032431	3.092273
0.491786	0.032217	3.123065
0.494986	0.032016	3.153700
0.498169	0.031829	3.184182
0.501351	0.031653	3.214499
0.504555	0.031490	3.244841
0.507737	0.031338	3.274902
0.510938	0.031198	3.304841
0.514116	0.031069	3.334661
0.517312	0.030949	3.364515
0.520505	0.030840	3.394105
0.523692	0.030740	3.423587
0.526875	0.030648	3.453106
0.530074	0.030567	3.482375
0.533265	0.030492	3.511542
0.536449	0.030426	3.540752
0.539648	0.030369	3.569723
0.542814	0.030319	3.598739
0.546018	0.030277	3.627522
0.549210	0.030241	3.656353
0.552391	0.030211	3.685093
0.555584	0.030188	3.713746
0.558764	0.030174	3.742180
0.561955	0.030164	3.770664
0.565131	0.030160	3.799067
0.568318	0.030163	3.827389
0.571514	0.030171	3.855634
0.574693	0.030185	3.883930
0.577880	0.030203	3.912022
0.581076	0.030228	3.940040
0.584252	0.030257	3.968112
0.587436	0.030293	3.995988
0.590626	0.030331	4.023918
0.593822	0.030374	4.051780
0.596996	0.030424	4.079574
0.600175	0.030476	4.107302
0.603359	0.030534	4.134965
0.606547	0.030595	4.162564
0.609738	0.030662	4.190100
0.612903	0.030731	4.217576
0.616101	0.030805	4.245109
0.619271	0.030883	4.272465
0.622473	0.030964	4.299879
0.625646	0.031049	4.327235
0.628819	0.031138	4.354534
0.631992	0.031230	4.381664
0.635197	0.031325	4.408966
0.638370	0.031424	4.436100
0.641541	0.031527	4.463182
0.644744	0.031633	4.490212
0.647911	0.031741	4.517301
0.651075	0.031854	4.544339
0.654270	0.031970	4.571217
0.657462	0.032087	4.598155
0.660615	0.032208	4.625045
0.663798	0.032332	4.651886
0.666976	0.032459	4.678681
0.670149	0.032588	4.705535
0.673351	0.032721	4.732237
0.676511	0.032856	4.759000
0.679701	0.032995	4.785613
0.682845	0.033135	4.812286
0.686019	0.033277	4.838916
0.689222	0.033423	4.865503
0.692378	0.033571	4.892047
0.695564	0.033722	4.918550
0.698739	0.033876	4.945012
0.701903	0.034030	4.971535
0.705097	0.034188	4.997916
0.708238	0.034348	5.024359
0.711408	0.034511	5.050761
0.714606	0.034675	5.077125
0.717750	0.034842	5.103451
0.720922	0.035011	5.129739
0.724122	0.035182	5.155990
0.727265	0.035356	5.182205
0.730436	0.035531	5.208480
0.733634	0.035708	5.234623
0.736773	0.035888	5.260826
0.739939	0.036070	5.286994
0.743132	0.036254	5.313127
0.746308	0.036439	5.339225
0.749466	0.036626	5.365290
0.752605	0.036817	5.391322
0.755771	0.037008	5.417321
0.758963	0.037201	5.443380
0.762135	0.037397	5.469314
0.765287	0.037594	5.495308
0.768465	0.037793	5.521271
0.771622	0.037993	5.547201
0.774756	0.038196	5.573101
0.777916	0.038400	5.598971
0.781101	0.038607	5.624810
0.784263	0.038814	5.650620
0.787401	0.039025	5.676401
0.790564	0.039235	5.702240
0.793753	0.039449	5.727963
0.796916	0.039664	5.753744
0.800053	0.039880	5.779497
0.803215	0.040098	5.805222
0.806349	0.040318	5.830920
0.809508	0.040539	5.856590
0.812691	0.040763	5.882233
0.815847	0.040987	5.907849
0.818972	0.041213	5.933523
0.822122	0.041441	5.959087
0.825296	0.041670	5.984709
0.828439	0.041901	6.010221
0.831606	0.042134	6.035791
0.834742	0.042368	6.061336
0.837901	0.042603	6.086856
0.841027	0.042840	6.112351
0.844176	0.043079	6.137822
0.847350	0.043319	6.163268
0.850488	0.043560	6.188691
0.853650	0.043803	6.214171
0.856777	0.044047	6.239546
0.859926	0.044293	6.264979
0.863099	0.044541	6.290309
0.866235	0.044789	6.315695
0.869393	0.045039	6.341059
0.872514	0.045291	6.366400
0.875656	0.045543	6.391719
0.878822	0.045798	6.417016
0.881948	0.046053	6.442292
0.885096	0.046310	6.467545
0.888266	0.046569	6.492778
0.891395	0.046829	6.517990
0.894547	0.047090	6.543257
0.897656	0.047352	6.568428
0.900786	0.047616	6.593654
0.903938	0.047881	6.618783
0.907047	0.048147	6.643969
0.910176	0.048416	6.669134
0.913327	0.048685	6.694204
0.916501	0.048955	6.719330
0.919628	0.049226	6.744436
0.922776	0.049500	6.769524
0.925877	0.049773	6.794592
0.928999	0.050049	6.819641
0.932142	0.050325	6.844745
0.935306	0.050604	6.869757
0.938421	0.050883	6.894751
0.941557	0.051164	6.919727
0.944642	0.051445	6.944757
0.947819	0.051728	6.969697
0.950945	0.052012	6.994691
0.954018	0.052298	7.019597
0.957185	0.052584	7.044556
0.960299	0.052872	7.069498
0.963433	0.053161	7.094352
0.966512	0.053451	7.119260
0.969687	0.053743	7.144151
0.972807	0.054035	7.169025
0.975869	0.054329	7.193883
0.979029	0.054624	7.218725
0.982131	0.054920	7.243481
0.985253	0.055217	7.268291
0.988394	0.055516	7.293153
0.991477	0.055815	7.317931
0.994579	0.056116	7.342694
0.997700	0.056418	7.367441
