Material: glass / hikari / BAF11
Optical constants. NIKON Zemax catalog 2017-11 (obtained from http://www.nikon.com)See also HIKARI glass data sheets
Specs: {"n_absolute": false, "wavelength_vacuum": false, "temperature": "20.0 °C", "nd": 1.66672, "Vd": 48.360121, "glass_code": 667484, "glass_status": "preferred", "density": "3.83 g/cm3", "thermal_expansion": [{"temperature_range": "-30 70 °C", "coefficient": "8.4e-06 K-1"}], "dPgF": -0.0009}
Dispersion formula 3, range 0.4 0.7 um, coefficients 2.718364 -0.009306715 2 0.02090148 -2 0.0001588714 -4 4.065932e-05 -6 -8.563966e-07 -8
wavelength (um)	k
0.350	6.7066E-06
0.360	3.0075E-06
0.370	1.4554E-06
0.380	7.5133E-07
0.390	4.3220E-07
0.400	2.4472E-07
0.420	1.0870E-07
0.440	6.7167E-08
0.460	4.7899E-08
0.480	3.0681E-08
0.500	1.1955E-08
0.550	4.3790E-09
0.600	4.7770E-09
0.650	1.0355E-08
0.700	-0.0000E+00
