Material: glass / hikari / BAF3
Optical constants. NIKON Zemax catalog 2017-11 (obtained from http://www.nikon.com)See also HIKARI glass data sheets
Specs: {"n_absolute": false, "wavelength_vacuum": false, "temperature": "20.0 °C", "nd": 1.58267, "Vd": 46.476929, "glass_code": 583465, "glass_status": "preferred", "density": "3.28 g/cm3", "thermal_expansion": [{"temperature_range": "-30 70 °C", "coefficient": "9.1e-06 K-1"}], "dPgF": 0.0009}
Dispersion formula 3, range 0.4 0.7 um, coefficients 2.438682 0.001609961 2 0.02688829 -2 -0.002446579 -4 0.0003965661 -6 -1.973046e-05 -8
wavelength (um)	k
0.320	5.8635E-06
0.330	1.7682E-06
0.340	5.7013E-07
0.350	2.2015E-07
0.360	1.1098E-07
0.370	5.9484E-08
0.380	5.1849E-08
0.390	2.8058E-08
0.400	1.9156E-08
0.420	1.3396E-08
0.440	1.0520E-08
0.460	3.6624E-09
0.480	3.8216E-09
0.500	3.9809E-09
0.550	4.3790E-09
0.600	4.7770E-09
0.650	5.1751E-09
0.700	5.5732E-09
