Material: glass / hikari / BAF4
Optical constants. NIKON Zemax catalog 2017-11 (obtained from http://www.nikon.com)See also HIKARI glass data sheets
Specs: {"n_absolute": false, "wavelength_vacuum": false, "temperature": "20.0 °C", "nd": 1.60562, "Vd": 43.767629, "glass_code": 606438, "glass_status": "preferred", "density": "3.37 g/cm3", "thermal_expansion": [{"temperature_range": "-30 70 °C", "coefficient": "7.8e-06 K-1"}], "dPgF": 0.0009}
Dispersion formula 3, range 0.4 0.7 um, coefficients 2.504959 0.003324741 2 0.02831428 -2 -0.002044138 -4 0.0003343099 -6 -1.534858e-05 -8
wavelength (um)	k
0.330	5.1631E-06
0.340	2.0428E-06
0.350	9.5391E-07
0.360	5.3379E-07
0.370	3.1022E-07
0.380	2.1295E-07
0.390	1.2993E-07
0.400	9.0398E-08
0.420	4.7122E-08
0.440	2.8124E-08
0.460	1.8349E-08
0.480	1.1476E-08
0.500	3.9809E-09
0.550	4.3790E-09
0.600	9.5589E-09
0.650	5.1751E-09
0.700	5.5732E-09
