Material: glass / hikari / BAK2
Optical constants. NIKON Zemax catalog 2017-11 (obtained from http://www.nikon.com)See also HIKARI glass data sheets
Specs: {"n_absolute": false, "wavelength_vacuum": false, "temperature": "20.0 °C", "nd": 1.53996, "Vd": 59.681919, "glass_code": 540597, "glass_status": "preferred", "density": "2.85 g/cm3", "thermal_expansion": [{"temperature_range": "-30 70 °C", "coefficient": "9.7e-06 K-1"}], "dPgF": 0.0021}
Dispersion formula 3, range 0.4 0.7 um, coefficients 2.319725 0.002602493 2 0.02249807 -2 -0.002672041 -4 0.0003926686 -6 -2.043303e-05 -8
wavelength (um)	k
0.290	6.9134E-06
0.300	3.0390E-06
0.310	1.3016E-06
0.320	5.6823E-07
0.330	2.4767E-07
0.340	9.0792E-08
0.350	2.7992E-08
0.360	2.5900E-08
0.370	1.4759E-08
0.380	1.5158E-08
0.390	6.2133E-09
0.400	3.1847E-09
0.420	3.3439E-09
0.440	3.5032E-09
0.460	3.6624E-09
0.480	3.8216E-09
0.500	3.9809E-09
0.550	4.3790E-09
0.600	4.7770E-09
0.650	5.1751E-09
0.700	-0.0000E+00
