Material: glass / hikari / E-BAF3
Optical constants. NIKON Zemax catalog 2017-11 (obtained from http://www.nikon.com)See also HIKARI glass data sheets
Specs: {"n_absolute": false, "wavelength_vacuum": false, "temperature": "23.0 °C", "nd": 1.58267, "Vd": 46.476921, "glass_status": "preferred", "density": "2.77 g/cm3", "thermal_expansion": [{"temperature_range": "-30 70 °C", "coefficient": "7.6e-06 K-1"}], "dPgF": 0.0009}
Dispersion formula 3, range 0.4 0.7 um, coefficients 2.43868193 0.00160996098 2 0.0268882943 -2 -0.00244657917 -4 0.000396566086 -6 -1.9730459e-05 -8
wavelength (um)	k
0.350	7.0347E-06
0.360	2.2876E-06
0.370	8.0804E-07
0.380	3.1525E-07
0.390	1.3316E-07
0.400	5.1341E-08
0.420	3.3439E-09
0.440	3.5032E-09
0.460	3.6624E-09
0.480	3.8216E-09
0.500	3.9809E-09
0.550	4.3790E-09
0.600	4.7770E-09
0.650	5.1751E-09
0.700	5.5732E-09
0.800	6.3694E-09
0.900	7.1656E-09
1.000	7.9617E-09
1.200	9.5541E-09
1.400	1.2323E-07
1.600	1.2739E-08
1.800	1.7293E-07
2.000	3.7033E-07
2.200	1.8446E-06
2.400	2.8805E-06
