Material: glass / hikari / E-BAK4
Optical constants. NIKON Zemax catalog 2017-11 (obtained from http://www.nikon.com)See also HIKARI glass data sheets
Specs: {"n_absolute": false, "wavelength_vacuum": false, "temperature": "23.0 °C", "nd": 1.568832, "Vd": 56.338294, "glass_code": 569563, "glass_status": "preferred", "density": "3.07 g/cm3", "thermal_expansion": [{"temperature_range": "-30 70 °C", "coefficient": "8.3e-06 K-1"}], "dPgF": -0.001}
Dispersion formula 3, range 0.4 0.7 um, coefficients 2.4220474 -0.00935286439 2 0.0138282404 -2 0.000292097262 -4 -5.77819731e-06 -6 7.05644888e-07 -8
wavelength (um)	k
0.320	8.1968E-06
0.330	3.1617E-06
0.340	1.2075E-06
0.350	4.8561E-07
0.360	2.0175E-07
0.370	6.8511E-08
0.380	1.8198E-08
0.390	3.1051E-09
0.400	3.1847E-09
0.420	3.3439E-09
0.440	3.5032E-09
0.460	3.6624E-09
0.480	3.8216E-09
0.500	3.9809E-09
0.550	4.3790E-09
0.600	4.7770E-09
0.650	5.1751E-09
0.700	5.5732E-09
0.800	6.3694E-09
0.900	7.1656E-09
1.000	7.9617E-09
1.200	9.5541E-09
1.400	1.1146E-08
1.600	1.2739E-08
1.800	1.4331E-08
2.000	3.2154E-07
2.200	1.1766E-06
2.400	2.2256E-06
