Material: glass / hikari / E-BAF8
Optical constants. NIKON Zemax catalog 2017-11 (obtained from http://www.nikon.com)See also HIKARI glass data sheets
Specs: {"n_absolute": false, "wavelength_vacuum": false, "temperature": "23.0 °C", "nd": 1.62374, "Vd": 47.044346, "glass_code": 624470, "glass_status": "preferred", "density": "3.14 g/cm3", "thermal_expansion": [{"temperature_range": "-30 70 °C", "coefficient": "8e-06 K-1"}], "dPgF": -0.0031}
Dispersion formula 3, range 0.4 0.7 um, coefficients 2.58072694 -0.00826682499 2 0.0192773695 -2 0.000287391647 -4 1.54399962e-05 -6 4.63747358e-07 -8
wavelength (um)	k
0.350	5.9054E-06
0.360	2.1630E-06
0.370	9.2662E-07
0.380	4.5608E-07
0.390	2.5541E-07
0.400	5.2106E-07
0.420	8.8048E-08
0.440	6.7167E-08
0.460	5.1610E-08
0.480	3.8389E-08
0.500	2.3945E-08
0.550	1.3150E-08
0.600	1.4345E-08
0.650	1.0355E-08
0.700	5.5732E-09
