Material: glass / hikari / E-BAK2
Optical constants. NIKON Zemax catalog 2017-11 (obtained from http://www.nikon.com)See also HIKARI glass data sheets
Specs: {"n_absolute": false, "wavelength_vacuum": false, "temperature": "23.0 °C", "nd": 1.539956, "Vd": 59.455634, "glass_code": 540595, "glass_status": "preferred", "density": "2.79 g/cm3", "thermal_expansion": [{"temperature_range": "-30 70 °C", "coefficient": "8.5e-06 K-1"}], "dPgF": -0.0004}
Dispersion formula 3, range 0.4 0.7 um, coefficients 2.33664322 -0.00862588382 2 0.0125079902 -2 0.000175550187 -4 4.02268677e-06 -6 -3.58785019e-08 -8
wavelength (um)	k
0.290	5.8287E-06
0.300	2.6467E-06
0.310	1.2194E-06
0.320	5.0535E-07
0.330	2.2182E-07
0.340	7.6839E-08
0.350	1.1163E-08
0.360	2.8662E-09
0.370	2.9458E-09
0.380	3.0255E-09
0.390	3.1051E-09
0.400	3.1847E-09
0.420	3.3439E-09
0.440	3.5032E-09
0.460	3.6624E-09
0.480	3.8216E-09
0.500	3.9809E-09
0.550	4.3790E-09
0.600	4.7770E-09
0.650	5.1751E-09
0.700	5.5732E-09
0.800	6.3694E-09
0.900	7.1656E-09
1.000	7.9617E-09
1.200	9.5541E-09
1.400	1.1146E-08
1.600	1.2739E-08
1.800	1.4331E-08
2.000	2.2439E-07
2.200	1.3649E-06
2.400	2.2256E-06
