Material: glass / hikari / E-BASF2
Optical constants. NIKON Zemax catalog 2017-11 (obtained from http://www.nikon.com)See also HIKARI glass data sheets
Specs: {"n_absolute": false, "wavelength_vacuum": false, "temperature": "23.0 °C", "nd": 1.66446, "Vd": 35.9135, "glass_status": "preferred", "density": "3.1 g/cm3", "thermal_expansion": [{"temperature_range": "-30 70 °C", "coefficient": "1.03e-05 K-1"}], "dPgF": 0.0017}
Dispersion formula 3, range 0.4 0.7 um, coefficients 2.67701358 0.00301170374 2 0.033120376 -2 -0.000925663558 -4 0.000180536382 -6 -2.62215298e-06 -8
wavelength (um)	k
0.360	8.5821E-06
0.370	3.1764E-06
0.380	1.3495E-06
0.390	6.5398E-07
0.400	3.7094E-07
0.420	1.3296E-07
0.440	7.0738E-08
0.460	4.4192E-08
0.480	3.0681E-08
0.500	1.5947E-08
0.550	4.3790E-09
0.600	4.7770E-09
0.650	5.1751E-09
0.700	5.5732E-09
0.800	6.3694E-09
0.900	7.1656E-09
1.000	7.9617E-09
1.200	9.5541E-09
1.400	1.1146E-08
1.600	1.2739E-08
1.800	1.7293E-07
2.000	3.2154E-07
2.200	1.0089E-06
2.400	1.8853E-06
