Material: glass / hikari / E-BAK1
Optical constants. NIKON Zemax catalog 2017-11 (obtained from http://www.nikon.com)See also HIKARI glass data sheets
Specs: {"n_absolute": false, "wavelength_vacuum": false, "temperature": "23.0 °C", "nd": 1.5725, "Vd": 57.738955, "glass_code": 572577, "glass_status": "preferred", "density": "3.16 g/cm3", "thermal_expansion": [{"temperature_range": "-30 70 °C", "coefficient": "8.5e-06 K-1"}], "dPgF": 0.0003}
Dispersion formula 3, range 0.4 0.7 um, coefficients 2.44353274 -0.0161455184 2 0.00881927898 -2 0.00144687542 -4 -0.000136331798 -6 6.03309808e-06 -8
wavelength (um)	k
0.290	7.4283E-06
0.300	3.5086E-06
0.310	1.6132E-06
0.320	7.6676E-07
0.330	3.6571E-07
0.340	1.8764E-07
0.350	1.0501E-07
0.360	4.9120E-08
0.370	2.6619E-08
0.380	1.5158E-08
0.390	9.3246E-09
0.400	9.5636E-09
0.420	3.3439E-09
0.440	1.0520E-08
0.460	7.3285E-09
0.480	3.8216E-09
0.500	3.9809E-09
0.550	4.3790E-09
0.600	4.7770E-09
0.650	5.1751E-09
0.700	5.5732E-09
