Material: glass / hikari / E-BASF8
Optical constants. NIKON Zemax catalog 2017-11 (obtained from http://www.nikon.com)See also HIKARI glass data sheets
Specs: {"n_absolute": false, "wavelength_vacuum": false, "temperature": "23.0 °C", "nd": 1.72342, "Vd": 37.950657, "glass_status": "preferred", "density": "3.58 g/cm3", "thermal_expansion": [{"temperature_range": "-30 70 °C", "coefficient": "8.6e-06 K-1"}], "dPgF": 0.0028}
Dispersion formula 3, range 0.4 0.7 um, coefficients 2.88848579 -0.0117260382 2 0.0269121453 -2 0.000931846805 -4 -1.77180132e-05 -6 5.63107499e-06 -8
wavelength (um)	k
0.360	6.3234E-06
0.370	2.9274E-06
0.380	1.4456E-06
0.390	8.1115E-07
0.400	4.4328E-07
0.420	1.7496E-07
0.440	8.5059E-08
0.460	4.7899E-08
0.480	1.9146E-08
0.500	3.9809E-09
0.550	4.3790E-09
0.600	4.7770E-09
0.650	5.1751E-09
0.700	5.5732E-09
0.800	6.3694E-09
0.900	7.1656E-09
1.000	7.9617E-09
1.200	9.5541E-09
1.400	1.1146E-08
1.600	1.2739E-08
1.800	1.4331E-08
2.000	1.9214E-07
2.200	6.9645E-07
2.400	2.4414E-06
