Material: glass / hikari / E-F1
Optical constants. NIKON Zemax catalog 2017-11 (obtained from http://www.nikon.com)See also HIKARI glass data sheets
Specs: {"n_absolute": false, "wavelength_vacuum": false, "temperature": "23.0 °C", "nd": 1.625882, "Vd": 35.649694, "glass_status": "preferred", "density": "2.72 g/cm3", "thermal_expansion": [{"temperature_range": "-30 70 °C", "coefficient": "8.3e-06 K-1"}], "dPgF": 0.0006}
Dispersion formula 3, range 0.4 0.7 um, coefficients 2.56251919 -0.00314623487 2 0.0291600242 -2 -0.000870730012 -4 0.000226533195 -6 -8.61239946e-06 -8
wavelength (um)	k
0.400	-0.0000E+00
0.700	-0.0000E+00
