Material: glass / hikari / E-F16
Optical constants. NIKON Zemax catalog 2017-11 (obtained from http://www.nikon.com)See also HIKARI glass data sheets
Specs: {"n_absolute": false, "wavelength_vacuum": false, "temperature": "23.0 °C", "nd": 1.592701, "Vd": 35.298957, "glass_status": "preferred", "density": "2.64 g/cm3", "thermal_expansion": [{"temperature_range": "-30 70 °C", "coefficient": "9.8e-06 K-1"}], "dPgF": 0.0079}
Dispersion formula 3, range 0.4 0.7 um, coefficients 2.47196413 -0.0100810083 2 0.0208698749 -2 0.000995620952 -4 -4.77932855e-05 -6 8.07129922e-06 -8
wavelength (um)	k
0.350	1.0896E-05
0.360	2.6975E-06
0.370	8.4704E-07
0.380	3.1860E-07
0.390	1.8214E-07
0.400	1.2001E-07
0.420	8.8048E-08
0.440	8.1473E-08
0.460	7.7690E-08
0.480	6.9381E-08
0.500	6.8222E-08
0.550	5.7271E-08
0.600	6.2477E-08
0.650	6.2446E-08
0.700	4.4743E-08
0.800	2.5516E-08
0.900	7.1656E-09
1.000	1.5931E-08
1.200	9.5541E-09
1.400	3.3473E-08
1.600	1.4083E-07
1.800	2.7477E-07
2.000	3.3778E-07
2.200	8.4280E-07
2.400	9.9974E-07
