Material: glass / hikari / E-F5
Optical constants. NIKON Zemax catalog 2017-11 (obtained from http://www.nikon.com)See also HIKARI glass data sheets
Specs: {"n_absolute": false, "wavelength_vacuum": false, "temperature": "23.0 °C", "nd": 1.60342, "Vd": 38.012852, "glass_code": 603380, "glass_status": "preferred", "density": "2.65 g/cm3", "thermal_expansion": [{"temperature_range": "-30 70 °C", "coefficient": "9e-06 K-1"}], "dPgF": 0.0026}
Dispersion formula 3, range 0.4 0.7 um, coefficients 2.50863619 -0.0101869365 2 0.0204516474 -2 0.000841069518 -4 -3.63565381e-05 -6 5.99712664e-06 -8
wavelength (um)	k
0.360	5.8448E-06
0.370	1.8693E-06
0.380	6.7477E-07
0.390	2.7908E-07
0.400	1.1340E-07
0.420	2.0114E-08
0.440	3.5032E-09
0.460	3.6624E-09
0.480	3.8216E-09
0.500	3.9809E-09
0.550	4.3790E-09
0.600	4.7770E-09
0.650	1.0355E-08
0.700	5.5732E-09
0.800	6.3694E-09
0.900	7.1656E-09
1.000	7.9617E-09
1.200	9.5541E-09
1.400	1.1146E-08
1.600	1.2739E-08
1.800	2.1649E-07
2.000	4.5199E-07
2.200	1.6319E-06
2.400	2.0122E-06
