Material: glass / hikari / E-F8
Optical constants. NIKON Zemax catalog 2017-11 (obtained from http://www.nikon.com)See also HIKARI glass data sheets
Specs: {"n_absolute": false, "wavelength_vacuum": false, "temperature": "23.0 °C", "nd": 1.59551, "Vd": 39.216011, "glass_status": "preferred", "density": "2.63 g/cm3", "thermal_expansion": [{"temperature_range": "-30 70 °C", "coefficient": "9.4e-06 K-1"}], "dPgF": -0.0009}
Dispersion formula 3, range 0.4 0.7 um, coefficients 2.47286461 -0.00151192688 2 0.0276004612 -2 -0.00152550371 -4 0.000290711488 -6 -1.28484326e-05 -8
wavelength (um)	k
0.350	1.2826E-05
0.360	3.7510E-06
0.370	1.3140E-06
0.380	5.6345E-07
0.390	2.6553E-07
0.400	1.4990E-07
0.420	7.0935E-08
0.440	4.9366E-08
0.460	4.0489E-08
0.480	2.6832E-08
0.500	1.9944E-08
0.550	8.7623E-09
0.600	4.7770E-09
0.650	1.5541E-08
0.700	5.5732E-09
0.800	6.3694E-09
0.900	7.1656E-09
1.000	7.9617E-09
1.200	9.5541E-09
1.400	1.1146E-08
1.600	1.2739E-08
1.800	2.6018E-07
2.000	5.1762E-07
2.200	1.5935E-06
2.400	2.0122E-06
