Material: glass / hikari / E-LAFH3
Optical constants. NIKON Zemax catalog 2017-11 (obtained from http://www.nikon.com)See also HIKARI glass data sheets
Specs: {"n_absolute": false, "wavelength_vacuum": false, "temperature": "23.0 °C", "nd": 1.795041, "Vd": 28.688901, "glass_status": "preferred", "density": "3.63 g/cm3", "thermal_expansion": [{"temperature_range": "-30 70 °C", "coefficient": "8.6e-06 K-1"}], "dPgF": 0.0107}
Dispersion formula 3, range 0.4 0.7 um, coefficients 3.10091582 -0.0131944552 2 0.0377063856 -2 0.00215246343 -4 -0.000117361655 -6 1.96473108e-05 -8 -2.24111072e-05 4
wavelength (um)	k
0.370	7.4367E-06
0.380	3.0066E-06
0.390	1.5341E-06
0.400	9.1572E-07
0.420	4.2725E-07
0.440	2.6919E-07
0.460	1.9934E-07
0.480	1.5991E-07
0.500	1.2941E-07
0.550	9.2891E-08
0.600	8.1867E-08
0.650	8.8689E-08
0.700	8.4189E-08
0.800	7.0416E-08
0.900	1.4338E-08
1.000	5.5900E-08
1.200	2.8691E-08
1.400	5.5844E-08
1.600	1.5371E-07
1.800	3.6265E-07
2.000	4.6837E-07
2.200	1.3082E-06
2.400	2.4414E-06
