Material: glass / hikari / E-LAF02
Optical constants. NIKON Zemax catalog 2017-11 (obtained from http://www.nikon.com)See also HIKARI glass data sheets
Specs: {"n_absolute": false, "wavelength_vacuum": false, "temperature": "23.0 °C", "nd": 1.72, "Vd": 43.683353, "glass_code": 720437, "glass_status": "preferred", "density": "3.66 g/cm3", "thermal_expansion": [{"temperature_range": "-30 70 °C", "coefficient": "8.2e-06 K-1"}], "dPgF": -0.0014}
Dispersion formula 3, range 0.4 0.7 um, coefficients 2.88761613 -0.0113224055 2 0.0234620658 -2 0.000879155778 -4 -3.93727241e-05 -6 4.43531743e-06 -8
wavelength (um)	k
0.350	6.7066E-06
0.360	2.6975E-06
0.370	1.2234E-06
0.380	6.0010E-07
0.390	3.0979E-07
0.400	1.5992E-07
0.420	4.0350E-08
0.440	3.5032E-09
0.460	3.6624E-09
0.480	3.8216E-09
0.500	3.9809E-09
0.550	4.3790E-09
0.600	4.7770E-09
0.650	5.1751E-09
0.700	5.5732E-09
0.800	6.3694E-09
0.900	7.1656E-09
1.000	7.9617E-09
1.200	9.5541E-09
1.400	1.1146E-08
1.600	1.2739E-08
1.800	1.4331E-08
2.000	2.7289E-07
2.200	1.1954E-06
2.400	4.0245E-06
