Material: glass / hikari / E-LASFH2
Optical constants. NIKON Zemax catalog 2017-11 (obtained from http://www.nikon.com)See also HIKARI glass data sheets
Specs: {"n_absolute": false, "wavelength_vacuum": false, "temperature": "23.0 °C", "nd": 1.76684, "Vd": 46.804913, "glass_code": 767468, "glass_status": "preferred", "density": "4.1 g/cm3", "thermal_expansion": [{"temperature_range": "-30 70 °C", "coefficient": "6.8e-06 K-1"}], "dPgF": -0.0073}
Dispersion formula 3, range 0.4 0.7 um, coefficients 3.04964021 -0.0143753567 2 0.0247919447 -2 0.000638849518 -4 -1.05068423e-05 -6 1.83387657e-06 -8
wavelength (um)	k
0.330	1.2093E-05
0.340	5.1329E-06
0.350	2.4162E-06
0.360	1.2341E-06
0.370	6.9405E-07
0.380	4.2112E-07
0.390	2.6553E-07
0.400	1.8344E-07
0.420	1.1216E-07
0.440	8.1473E-08
0.460	5.9043E-08
0.480	4.2250E-08
0.500	2.7950E-08
0.550	8.7623E-09
0.600	9.5589E-09
0.650	5.1751E-09
0.700	5.5732E-09
