Material: glass / hikari / E-LAF09
Optical constants. NIKON Zemax catalog 2017-11 (obtained from http://www.nikon.com)See also HIKARI glass data sheets
Specs: {"n_absolute": false, "wavelength_vacuum": false, "temperature": "23.0 °C", "nd": 1.697, "Vd": 48.53059, "glass_status": "preferred", "density": "3.67 g/cm3", "thermal_expansion": [{"temperature_range": "-30 70 °C", "coefficient": "8.7e-06 K-1"}], "dPgF": -0.0018}
Dispersion formula 3, range 0.4 0.7 um, coefficients 2.82115249 -0.0128420041 2 0.0195742767 -2 0.000851971209 -4 -3.82046776e-05 -6 2.42425127e-06 -8
wavelength (um)	k
0.400	-0.0000E+00
0.700	-0.0000E+00
