Material: glass / hikari / E-LAF7
Optical constants. NIKON Zemax catalog 2017-11 (obtained from http://www.nikon.com)See also HIKARI glass data sheets
Specs: {"n_absolute": false, "wavelength_vacuum": false, "temperature": "23.0 °C", "nd": 1.749497, "Vd": 35.281419, "glass_code": 749353, "glass_status": "preferred", "density": "3.61 g/cm3", "thermal_expansion": [{"temperature_range": "-30 70 °C", "coefficient": "8.7e-06 K-1"}], "dPgF": 0.0019}
Dispersion formula 3, range 0.4 0.7 um, coefficients 2.96631279 -0.0109274208 2 0.0314277188 -2 0.000703288732 -4 4.43317688e-05 -6 2.65190331e-06 -8
wavelength (um)	k
0.360	6.8983E-06
0.370	2.6979E-06
0.380	1.3495E-06
0.390	7.7111E-07
0.400	4.8008E-07
0.420	2.3179E-07
0.440	1.3565E-07
0.460	8.8925E-08
0.480	5.7730E-08
0.500	2.3945E-08
0.550	4.3790E-09
0.600	4.7770E-09
0.650	1.0355E-08
0.700	5.5732E-09
