Material: glass / hikari / E-LAF05
Optical constants. NIKON Zemax catalog 2017-11 (obtained from http://www.nikon.com)See also HIKARI glass data sheets
Specs: {"n_absolute": false, "wavelength_vacuum": false, "temperature": "23.0 °C", "nd": 1.762001, "Vd": 40.107044, "glass_code": 762401, "glass_status": "preferred", "density": "3.94 g/cm3", "thermal_expansion": [{"temperature_range": "-30 70 °C", "coefficient": "7.8e-06 K-1"}], "dPgF": -0.0005}
Dispersion formula 3, range 0.4 0.7 um, coefficients 3.02046444 -0.0121632364 2 0.028023846 -2 0.000861441681 -4 -1.40486471e-05 -6 4.5613035e-06 -8
wavelength (um)	k
0.330	9.2084E-06
0.340	3.5426E-06
0.350	1.5172E-06
0.360	7.4875E-07
0.370	4.4408E-07
0.380	2.5543E-07
0.390	1.6246E-07
0.400	1.2001E-07
0.420	7.4350E-08
0.440	5.6476E-08
0.460	4.4192E-08
0.480	3.0681E-08
0.500	1.9944E-08
0.550	1.3150E-08
0.600	9.5589E-09
0.650	1.0355E-08
0.700	5.5732E-09
