Material: glass / hikari / E-LASF04
Optical constants. NIKON Zemax catalog 2017-11 (obtained from http://www.nikon.com)See also HIKARI glass data sheets
Specs: {"n_absolute": false, "wavelength_vacuum": false, "temperature": "23.0 °C", "nd": 1.81554, "Vd": 44.342093, "glass_status": "preferred", "density": "4.56 g/cm3", "thermal_expansion": [{"temperature_range": "-30 70 °C", "coefficient": "7.6e-06 K-1"}], "dPgF": -0.009}
Dispersion formula 3, range 0.4 0.7 um, coefficients 3.20360786 -0.00877554777 2 0.0332446054 -2 -0.000432887979 -4 0.000134715955 -6 -4.716471e-06 -8
wavelength (um)	k
0.400	-0.0000E+00
0.700	-0.0000E+00
