Material: glass / hikari / E-LAF3
Optical constants. NIKON Zemax catalog 2017-11 (obtained from http://www.nikon.com)See also HIKARI glass data sheets
Specs: {"n_absolute": false, "wavelength_vacuum": false, "temperature": "23.0 °C", "nd": 1.717004, "Vd": 47.933096, "glass_code": 717479, "glass_status": "preferred", "density": "3.89 g/cm3", "thermal_expansion": [{"temperature_range": "-30 70 °C", "coefficient": "9.6e-06 K-1"}], "dPgF": -0.0033}
Dispersion formula 3, range 0.4 0.7 um, coefficients 2.88218387 -0.0106317724 2 0.0227527853 -2 0.000397667212 -4 1.25478223e-05 -6 5.87511175e-07 -8
wavelength (um)	k
0.400	-0.0000E+00
0.700	-0.0000E+00
