Material: glass / hikari / E-LAK02
Optical constants. NIKON Zemax catalog 2017-11 (obtained from http://www.nikon.com)See also HIKARI glass data sheets
Specs: {"n_absolute": false, "wavelength_vacuum": false, "temperature": "23.0 °C", "nd": 1.67, "Vd": 57.344444, "glass_code": 670573, "glass_status": "preferred", "density": "3.74 g/cm3", "thermal_expansion": [{"temperature_range": "-30 70 °C", "coefficient": "8.8e-06 K-1"}], "dPgF": -0.0045}
Dispersion formula 3, range 0.4 0.7 um, coefficients 2.74241958 -0.0130203862 2 0.0159689321 -2 0.000709178831 -4 -6.08192466e-05 -6 3.51166538e-06 -8
wavelength (um)	k
0.290	7.4283E-06
0.300	4.0938E-06
0.310	2.5203E-06
0.320	1.5691E-06
0.330	1.0128E-06
0.340	6.3778E-07
0.350	4.2007E-07
0.360	2.5448E-07
0.370	1.5723E-07
0.380	8.8991E-08
0.390	5.9534E-08
0.400	3.5208E-08
0.420	1.3396E-08
0.440	3.5032E-09
0.460	3.6624E-09
0.480	3.8216E-09
0.500	3.9809E-09
0.550	4.3790E-09
0.600	4.7770E-09
0.650	5.1751E-09
0.700	5.5732E-09
0.800	6.3694E-09
0.900	7.1656E-09
1.000	7.9617E-09
1.200	9.5541E-09
1.400	1.1146E-08
1.600	1.2739E-08
1.800	1.7293E-07
2.000	5.5054E-07
2.200	2.4381E-06
2.400	7.9358E-06
