Material: glass / hikari / E-LASFH15
Optical constants. NIKON Zemax catalog 2017-11 (obtained from http://www.nikon.com)See also HIKARI glass data sheets
Specs: {"n_absolute": false, "wavelength_vacuum": false, "temperature": "23.0 °C", "nd": 1.95, "Vd": 29.36536, "glass_status": "preferred", "density": "4.78 g/cm3", "thermal_expansion": [{"temperature_range": "-30 70 °C", "coefficient": "8.6e-06 K-1"}], "dPgF": 0.0058}
Dispersion formula 3, range 0.4 0.7 um, coefficients 3.64564579 -0.0149009227 2 0.0493219809 -2 0.00239217482 -4 -9.28226213e-05 -6 1.87217041e-05 -8 -2.00969759e-05 4
wavelength (um)	k
0.370	6.4990E-06
0.380	3.0894E-06
0.390	1.7445E-06
0.400	1.0457E-06
0.420	5.0409E-07
0.440	2.8055E-07
0.460	1.8776E-07
0.480	1.3213E-07
0.500	9.2583E-08
0.550	4.3988E-08
0.600	3.3540E-08
0.650	4.1547E-08
0.700	5.0361E-08
0.800	8.9757E-08
0.900	4.3101E-08
1.000	3.1895E-08
1.200	1.9118E-08
1.400	3.3473E-08
1.600	1.1511E-07
1.800	2.4560E-07
2.000	3.7033E-07
2.200	8.0609E-07
2.400	2.6597E-06
