Material: glass / hikari / E-LAFH2
Optical constants. NIKON Zemax catalog 2017-11 (obtained from http://www.nikon.com)See also HIKARI glass data sheets
Specs: {"n_absolute": false, "wavelength_vacuum": false, "temperature": "23.0 °C", "nd": 1.80384, "Vd": 33.889217, "glass_status": "preferred", "density": "3.58 g/cm3", "thermal_expansion": [{"temperature_range": "-30 70 °C", "coefficient": "7.5e-06 K-1"}], "dPgF": 0.0032}
Dispersion formula 3, range 0.4 0.7 um, coefficients 3.1493362 -0.0148382096 2 0.0335324542 -2 0.00159644183 -4 -7.06244061e-05 -6 1.15814159e-05 -8
wavelength (um)	k
0.360	6.3234E-06
0.370	2.5542E-06
0.380	1.2110E-06
0.390	7.3157E-07
0.400	4.8008E-07
0.420	2.7505E-07
0.440	1.7592E-07
0.460	1.1905E-07
0.480	6.9381E-08
0.500	3.5972E-08
0.550	4.3790E-09
0.600	4.7770E-09
0.650	1.0355E-08
0.700	5.5732E-09
0.800	6.3694E-09
0.900	7.1656E-09
1.000	7.9617E-09
1.200	9.5541E-09
1.400	1.1146E-08
1.600	1.2739E-08
1.800	8.6203E-08
2.000	2.5671E-07
2.200	9.9038E-07
2.400	4.2617E-06
