Material: glass / hikari / E-LASF016
Optical constants. NIKON Zemax catalog 2017-11 (obtained from http://www.nikon.com)See also HIKARI glass data sheets
Specs: {"n_absolute": false, "wavelength_vacuum": false, "temperature": "23.0 °C", "nd": 1.772499, "Vd": 49.60759, "glass_code": 772496, "glass_status": "preferred", "density": "4.25 g/cm3", "thermal_expansion": [{"temperature_range": "-30 70 °C", "coefficient": "7.1e-06 K-1"}], "dPgF": -0.009}
Dispersion formula 3, range 0.4 0.7 um, coefficients 3.07241378 -0.0146849804 2 0.0244285857 -2 0.000398183255 -4 1.22802438e-05 -6 1.23709929e-07 -8
wavelength (um)	k
0.310	5.9402E-06
0.320	2.9824E-06
0.330	1.7172E-06
0.340	1.0435E-06
0.350	6.2150E-07
0.360	3.6622E-07
0.370	2.3273E-07
0.380	1.4240E-07
0.390	8.8138E-08
0.400	6.1061E-08
0.420	3.0216E-08
0.440	2.1072E-08
0.460	7.3285E-09
0.480	3.8216E-09
0.500	3.9809E-09
0.550	4.3790E-09
0.600	4.7770E-09
0.650	5.1751E-09
0.700	5.5732E-09
0.800	6.3694E-09
0.900	7.1656E-09
1.000	7.9617E-09
1.200	9.5541E-09
1.400	1.1146E-08
1.600	1.2739E-08
1.800	1.4396E-07
2.000	6.0004E-07
2.200	2.0598E-06
2.400	8.2273E-06
