Material: glass / hikari / E-LAF2
Optical constants. NIKON Zemax catalog 2017-11 (obtained from http://www.nikon.com)See also HIKARI glass data sheets
Specs: {"n_absolute": false, "wavelength_vacuum": false, "temperature": "23.0 °C", "nd": 1.743997, "Vd": 44.786312, "glass_code": 744448, "glass_status": "preferred", "density": "4.16 g/cm3", "thermal_expansion": [{"temperature_range": "-30 70 °C", "coefficient": "7.6e-06 K-1"}], "dPgF": -0.0037}
Dispersion formula 3, range 0.4 0.7 um, coefficients 2.9684827 -0.0116032701 2 0.0244833672 -2 0.000775976856 -4 -2.44342622e-05 -6 3.01832049e-06 -8
wavelength (um)	k
0.340	8.7091E-06
0.350	3.5455E-06
0.360	1.5116E-06
0.370	7.3156E-07
0.380	3.8656E-07
0.390	2.0195E-07
0.400	1.1011E-07
0.420	3.0216E-08
0.440	3.5032E-09
0.460	3.6624E-09
0.480	3.8216E-09
0.500	3.9809E-09
0.550	4.3790E-09
0.600	4.7770E-09
0.650	5.1751E-09
0.700	5.5732E-09
0.800	6.3694E-09
0.900	7.1656E-09
1.000	7.9617E-09
1.200	9.5541E-09
1.400	1.1146E-08
1.600	1.2739E-08
1.800	1.2950E-07
2.000	4.6837E-07
2.200	1.8446E-06
2.400	6.2740E-06
