Material: glass / hikari / E-LAK01
Optical constants. NIKON Zemax catalog 2017-11 (obtained from http://www.nikon.com)See also HIKARI glass data sheets
Specs: {"n_absolute": false, "wavelength_vacuum": false, "temperature": "23.0 °C", "nd": 1.639999, "Vd": 60.087359, "glass_code": 640601, "glass_status": "preferred", "density": "3.01 g/cm3", "thermal_expansion": [{"temperature_range": "-30 70 °C", "coefficient": "7.7e-06 K-1"}], "dPgF": -0.0059}
Dispersion formula 3, range 0.4 0.7 um, coefficients 2.64816555 -0.0139955727 2 0.0152775593 -2 0.000227366594 -4 4.86219531e-06 -6 -2.33276501e-07 -8
wavelength (um)	k
0.300	9.3393E-06
0.320	4.2290E-06
0.340	1.7177E-06
0.360	6.3926E-07
0.380	2.2270E-07
0.400	9.6955E-08
0.420	5.3908E-08
0.440	4.2271E-08
0.460	2.9402E-08
0.480	2.2987E-08
0.500	1.5947E-08
0.550	1.3150E-08
0.600	2.3933E-08
0.650	2.0732E-08
0.700	1.6736E-08
