Material: glass / hikari / E-LASF02
Optical constants. NIKON Zemax catalog 2017-11 (obtained from http://www.nikon.com)See also HIKARI glass data sheets
Specs: {"n_absolute": false, "wavelength_vacuum": false, "temperature": "23.0 °C", "nd": 1.79952, "Vd": 42.242361, "glass_status": "preferred", "density": "4.32 g/cm3", "thermal_expansion": [{"temperature_range": "-30 70 °C", "coefficient": "6.8e-06 K-1"}], "dPgF": -0.0075}
Dispersion formula 3, range 0.4 0.7 um, coefficients 3.15611691 -0.0172799726 2 0.0273336859 -2 0.00119991815 -4 -6.25674387e-05 -6 5.65571879e-06 -8
wavelength (um)	k
0.330	7.8670E-06
0.340	3.4442E-06
0.350	1.7683E-06
0.360	9.8116E-07
0.370	5.4862E-07
0.380	3.0854E-07
0.390	1.7885E-07
0.400	9.3675E-08
0.420	2.0114E-08
0.440	3.5032E-09
0.460	3.6624E-09
0.480	3.8216E-09
0.500	3.9809E-09
0.550	4.3790E-09
0.600	4.7770E-09
0.650	5.1751E-09
0.700	5.5732E-09
0.800	6.3694E-09
0.900	7.1656E-09
1.000	7.9617E-09
1.200	9.5541E-09
1.400	1.1146E-08
1.600	1.2739E-08
1.800	1.4331E-08
2.000	3.5405E-07
2.200	1.5360E-06
2.400	6.8120E-06
