Material: glass / hikari / E-LAK8
Optical constants. NIKON Zemax catalog 2017-11 (obtained from http://www.nikon.com)See also HIKARI glass data sheets
Specs: {"n_absolute": false, "wavelength_vacuum": false, "temperature": "23.0 °C", "nd": 1.712995, "Vd": 53.875777, "glass_code": 713539, "glass_status": "preferred", "density": "3.72 g/cm3", "thermal_expansion": [{"temperature_range": "-30 70 °C", "coefficient": "6.8e-06 K-1"}], "dPgF": -0.0081}
Dispersion formula 3, range 0.4 0.7 um, coefficients 2.87864541 -0.0142314931 2 0.0198025768 -2 0.00040117957 -4 -6.68878586e-06 -6 7.86869747e-07 -8
wavelength (um)	k
0.300	8.3713E-06
0.310	4.5208E-06
0.320	2.6734E-06
0.330	1.7172E-06
0.340	1.0435E-06
0.350	6.5654E-07
0.360	3.9896E-07
0.370	2.5191E-07
0.380	1.5829E-07
0.390	1.1057E-07
0.400	7.7326E-08
0.420	5.0514E-08
0.440	3.5190E-08
0.460	2.2030E-08
0.480	1.1476E-08
0.500	3.9809E-09
0.550	4.3790E-09
0.600	4.7770E-09
0.650	5.1751E-09
0.700	5.5732E-09
0.800	6.3694E-09
0.900	7.1656E-09
1.000	7.9617E-09
1.200	9.5541E-09
1.400	3.3473E-08
1.600	3.8255E-08
1.800	2.3104E-07
2.000	7.1616E-07
2.200	2.4381E-06
2.400	9.7561E-06
