Material: glass / hikari / E-LAF010
Optical constants. NIKON Zemax catalog 2017-11 (obtained from http://www.nikon.com)See also HIKARI glass data sheets
Specs: {"n_absolute": false, "wavelength_vacuum": false, "temperature": "23.0 °C", "nd": 1.7432, "Vd": 49.314451, "glass_code": 743493, "glass_status": "preferred", "density": "4.07 g/cm3", "thermal_expansion": [{"temperature_range": "-30 70 °C", "coefficient": "6.6e-06 K-1"}], "dPgF": -0.0089}
Dispersion formula 3, range 0.4 0.7 um, coefficients 2.96201742 -0.00690787335 2 0.0295340678 -2 -0.00139338248 -4 0.000252317172 -6 -1.245434e-05 -8
wavelength (um)	k
0.320	5.6208E-06
0.330	2.6829E-06
0.340	1.4276E-06
0.350	8.0126E-07
0.360	4.3208E-07
0.370	2.4551E-07
0.380	1.2975E-07
0.390	7.2215E-08
0.400	3.5208E-08
0.420	3.3439E-09
0.440	3.5032E-09
0.460	3.6624E-09
0.480	3.8216E-09
0.500	3.9809E-09
0.550	4.3790E-09
0.600	4.7770E-09
0.650	5.1751E-09
0.700	5.5732E-09
0.800	6.3694E-09
0.900	7.1656E-09
1.000	7.9617E-09
1.200	9.5541E-09
1.400	1.1146E-08
1.600	1.2739E-08
1.800	1.4396E-07
2.000	5.3407E-07
2.200	2.2181E-06
2.400	8.8242E-06
