Material: glass / hikari / E-LASFH17
Optical constants. NIKON Zemax catalog 2017-11 (obtained from http://www.nikon.com)See also HIKARI glass data sheets
Specs: {"n_absolute": false, "wavelength_vacuum": false, "temperature": "23.0 °C", "nd": 2.00069, "Vd": 25.454379, "glass_status": "preferred", "density": "4.68 g/cm3", "thermal_expansion": [{"temperature_range": "-30 70 °C", "coefficient": "8.1e-06 K-1"}], "dPgF": 0.0131}
Dispersion formula 3, range 0.4 0.7 um, coefficients 3.81220648 -0.0171101271 2 0.0575348609 -2 0.00395166224 -4 -0.000247712063 -6 3.77234212e-05 -8 0.000103512503 4
wavelength (um)	k
0.370	1.3559E-05
0.380	6.6747E-06
0.390	3.5363E-06
0.400	2.0815E-06
0.420	9.1724E-07
0.440	4.8761E-07
0.460	3.2117E-07
0.480	2.2418E-07
0.500	1.6657E-07
0.550	8.3959E-08
0.600	6.7317E-08
0.650	6.2446E-08
0.700	5.0361E-08
0.800	1.9127E-08
0.900	4.3101E-08
1.000	6.3918E-08
1.200	2.8691E-08
1.400	1.1146E-08
1.600	1.1511E-07
1.800	2.1649E-07
2.000	3.7033E-07
2.200	8.4280E-07
2.400	2.6597E-06
