Material: glass / hikari / E-LF5
Optical constants. NIKON Zemax catalog 2017-11 (obtained from http://www.nikon.com)See also HIKARI glass data sheets
Specs: {"n_absolute": false, "wavelength_vacuum": false, "temperature": "23.0 °C", "nd": 1.581439, "Vd": 40.738479, "glass_code": 581407, "glass_status": "preferred", "density": "2.58 g/cm3", "thermal_expansion": [{"temperature_range": "-30 70 °C", "coefficient": "8.6e-06 K-1"}], "dPgF": 0.0014}
Dispersion formula 3, range 0.4 0.7 um, coefficients 2.44577168 -0.0100665627 2 0.0184371468 -2 0.000644165105 -4 -1.74180822e-05 -6 3.77641526e-06 -8
wavelength (um)	k
0.350	1.2826E-05
0.360	3.7510E-06
0.370	1.2234E-06
0.380	4.2112E-07
0.390	1.6246E-07
0.400	5.7818E-08
0.420	3.3439E-09
0.440	3.5032E-09
0.460	3.6624E-09
0.480	3.8216E-09
0.500	3.9809E-09
0.550	4.3790E-09
0.600	4.7770E-09
0.650	5.1751E-09
0.700	5.5732E-09
0.800	6.3694E-09
0.900	7.1656E-09
1.000	7.9617E-09
1.200	9.5541E-09
1.400	1.1146E-08
1.600	1.2739E-08
1.800	1.1505E-07
2.000	2.7289E-07
2.200	1.4598E-06
2.400	2.0122E-06
