Material: glass / hikari / E-SF15
Optical constants. NIKON Zemax catalog 2017-11 (obtained from http://www.nikon.com)See also HIKARI glass data sheets
Specs: {"n_absolute": false, "wavelength_vacuum": false, "temperature": "23.0 °C", "nd": 1.698947, "Vd": 30.128584, "glass_code": 699301, "glass_status": "preferred", "density": "2.97 g/cm3", "thermal_expansion": [{"temperature_range": "-30 70 °C", "coefficient": "9.1e-06 K-1"}], "dPgF": 0.0092}
Dispersion formula 3, range 0.4 0.7 um, coefficients 2.7903158 -0.0118464509 2 0.0305751341 -2 0.00141030608 -4 -4.15895631e-05 -6 1.14740935e-05 -8
wavelength (um)	k
0.370	6.0072E-06
0.380	2.3482E-06
0.390	1.1969E-06
0.400	6.7075E-07
0.420	3.0787E-07
0.440	1.8698E-07
0.460	1.3801E-07
0.480	1.0455E-07
0.500	7.2272E-08
0.550	2.1939E-08
0.600	1.4345E-08
0.650	2.5928E-08
0.700	5.5732E-09
0.800	6.3694E-09
0.900	7.1656E-09
1.000	7.9617E-09
1.200	9.5541E-09
1.400	1.1146E-08
1.600	1.2739E-08
1.800	5.7411E-08
2.000	2.0826E-07
2.200	8.4280E-07
2.400	1.8643E-06
