Material: glass / hikari / E-SF11
Optical constants. NIKON Zemax catalog 2017-11 (obtained from http://www.nikon.com)See also HIKARI glass data sheets
Specs: {"n_absolute": false, "wavelength_vacuum": false, "temperature": "23.0 °C", "nd": 1.784723, "Vd": 25.679481, "glass_code": 785257, "glass_status": "preferred", "density": "3.22 g/cm3", "thermal_expansion": [{"temperature_range": "-30 70 °C", "coefficient": "1e-05 K-1"}], "dPgF": 0.0146}
Dispersion formula 3, range 0.4 0.7 um, coefficients 3.05654935 -0.0143159709 2 0.0381593027 -2 0.00315675913 -4 -0.000223523385 -6 2.90021069e-05 -8
wavelength (um)	k
0.370	7.4367E-06
0.380	2.7708E-06
0.390	1.3369E-06
0.400	7.5033E-07
0.420	3.1521E-07
0.440	1.7592E-07
0.460	1.1527E-07
0.480	7.7169E-08
0.500	5.2065E-08
0.550	8.7623E-09
0.600	9.5589E-09
0.650	3.1129E-08
0.700	4.4743E-08
0.800	6.3982E-08
0.900	7.1656E-09
1.000	7.9617E-09
1.200	9.5541E-09
1.400	1.1146E-08
1.600	6.3822E-08
1.800	2.7477E-07
2.000	4.1928E-07
2.200	1.1205E-06
2.400	2.0122E-06
