Material: glass / hikari / E-SF2
Optical constants. NIKON Zemax catalog 2017-11 (obtained from http://www.nikon.com)See also HIKARI glass data sheets
Specs: {"n_absolute": false, "wavelength_vacuum": false, "temperature": "23.0 °C", "nd": 1.647689, "Vd": 33.799707, "glass_code": 648338, "glass_status": "preferred", "density": "2.77 g/cm3", "thermal_expansion": [{"temperature_range": "-30 70 °C", "coefficient": "8.4e-06 K-1"}], "dPgF": 0.0069}
Dispersion formula 3, range 0.4 0.7 um, coefficients 2.63429594 -0.00920840209 2 0.0274266023 -2 0.000225441472 -4 9.97644221e-05 -6 1.76259116e-08 -8
wavelength (um)	k
0.360	1.0046E-05
0.370	3.3549E-06
0.380	1.2110E-06
0.390	5.4111E-07
0.400	2.6541E-07
0.420	1.0870E-07
0.440	7.0738E-08
0.460	5.5324E-08
0.480	4.6114E-08
0.500	3.1959E-08
0.550	1.3150E-08
0.600	9.5589E-09
0.650	2.0732E-08
0.700	5.5732E-09
0.800	6.3694E-09
0.900	7.1656E-09
1.000	7.9617E-09
1.200	9.5541E-09
1.400	6.7046E-08
1.600	2.5490E-08
1.800	2.0195E-07
2.000	4.0295E-07
2.200	1.7282E-06
2.400	2.4414E-06
