Material: glass / hikari / E-SF4
Optical constants. NIKON Zemax catalog 2017-11 (obtained from http://www.nikon.com)See also HIKARI glass data sheets
Specs: {"n_absolute": false, "wavelength_vacuum": false, "temperature": "23.0 °C", "nd": 1.755199, "Vd": 27.510087, "glass_code": 755275, "glass_status": "preferred", "density": "3.17 g/cm3", "thermal_expansion": [{"temperature_range": "-30 70 °C", "coefficient": "1.02e-05 K-1"}], "dPgF": 0.0121}
Dispersion formula 3, range 0.4 0.7 um, coefficients 2.96469762 -0.0128650713 2 0.0357299793 -2 0.00216572877 -4 -0.000102243404 -6 1.82439835e-05 -8
wavelength (um)	k
0.370	7.0899E-06
0.380	2.7708E-06
0.390	1.2429E-06
0.400	5.9311E-07
0.420	1.6792E-07
0.440	4.9366E-08
0.460	1.0998E-08
0.480	3.8216E-09
0.500	3.9809E-09
0.550	4.3790E-09
0.600	4.7770E-09
0.650	5.1751E-09
0.700	5.5732E-09
0.800	6.3694E-09
0.900	7.1656E-09
1.000	7.9617E-09
1.200	9.5541E-09
1.400	1.1146E-08
1.600	1.2739E-08
1.800	1.4331E-08
2.000	1.9214E-07
2.200	8.0609E-07
2.400	1.6966E-06
