Material: glass / hikari / E-SF13
Optical constants. NIKON Zemax catalog 2017-11 (obtained from http://www.nikon.com)See also HIKARI glass data sheets
Specs: {"n_absolute": false, "wavelength_vacuum": false, "temperature": "23.0 °C", "nd": 1.740769, "Vd": 27.784828, "glass_code": 741278, "glass_status": "preferred", "density": "3.13 g/cm3", "thermal_expansion": [{"temperature_range": "-30 70 °C", "coefficient": "9.1e-06 K-1"}], "dPgF": 0.0115}
Dispersion formula 3, range 0.4 0.7 um, coefficients 2.92006212 -0.0134436038 2 0.0333556844 -2 0.00246092959 -4 -0.000160492168 -6 2.11511846e-05 -8
wavelength (um)	k
0.370	8.8205E-06
0.380	3.1746E-06
0.390	1.4339E-06
0.400	7.1029E-07
0.420	2.5696E-07
0.440	1.2475E-07
0.460	7.3953E-08
0.480	3.8389E-08
0.500	1.5947E-08
0.550	4.3790E-09
0.600	4.7770E-09
0.650	1.0355E-08
0.700	5.5732E-09
0.800	6.3694E-09
0.900	7.1656E-09
1.000	7.9617E-09
1.200	9.5541E-09
1.400	1.1146E-08
1.600	1.2739E-08
1.800	1.5844E-07
2.000	2.5671E-07
2.200	8.2443E-07
2.400	1.3040E-06
