Material: glass / hikari / E-SFS3
Optical constants. NIKON Zemax catalog 2017-11 (obtained from http://www.nikon.com)See also HIKARI glass data sheets
Specs: {"n_absolute": false, "wavelength_vacuum": false, "temperature": "23.0 °C", "nd": 1.784696, "Vd": 26.295354, "glass_code": 785263, "glass_status": "preferred", "density": "3.28 g/cm3", "thermal_expansion": [{"temperature_range": "-30 70 °C", "coefficient": "1.02e-05 K-1"}], "dPgF": 0.0134}
Dispersion formula 3, range 0.4 0.7 um, coefficients 3.05701152 -0.0132251945 2 0.0390853018 -2 0.0025148016 -4 -0.000131876542 -6 2.24898958e-05 -8
wavelength (um)	k
0.370	5.7890E-06
0.380	2.3482E-06
0.390	1.1069E-06
0.400	6.3169E-07
0.420	2.6057E-07
0.440	1.4658E-07
0.460	1.0019E-07
0.480	6.9381E-08
0.500	3.9989E-08
0.550	4.3790E-09
0.600	4.7770E-09
0.650	5.1751E-09
0.700	1.6736E-08
