Material: glass / hikari / E-SF7
Optical constants. NIKON Zemax catalog 2017-11 (obtained from http://www.nikon.com)See also HIKARI glass data sheets
Specs: {"n_absolute": false, "wavelength_vacuum": false, "temperature": "23.0 °C", "nd": 1.6398, "Vd": 34.563661, "glass_status": "preferred", "density": "2.77 g/cm3", "thermal_expansion": [{"temperature_range": "-30 70 °C", "coefficient": "8.6e-06 K-1"}], "dPgF": 0.0022}
Dispersion formula 3, range 0.4 0.7 um, coefficients 2.60224509 -0.00228272809 2 0.0313239043 -2 -0.00110981516 -4 0.00028447243 -6 -1.2054467e-05 -8
wavelength (um)	k
0.360	1.0046E-05
0.370	3.2643E-06
0.380	1.2110E-06
0.390	5.4111E-07
0.400	2.7928E-07
0.420	1.2254E-07
0.440	8.8648E-08
0.460	7.0220E-08
0.480	5.3854E-08
0.500	3.9989E-08
0.550	2.1939E-08
0.600	2.3933E-08
0.650	4.1547E-08
0.700	3.9130E-08
0.800	2.5516E-08
0.900	7.1656E-09
1.000	7.9617E-09
1.200	9.5541E-09
1.400	1.3450E-07
1.600	3.8255E-08
1.800	1.7293E-07
2.000	4.0295E-07
2.200	1.7282E-06
2.400	2.4414E-06
