Material: glass / hikari / E-SF5
Optical constants. NIKON Zemax catalog 2017-11 (obtained from http://www.nikon.com)See also HIKARI glass data sheets
Specs: {"n_absolute": false, "wavelength_vacuum": false, "temperature": "23.0 °C", "nd": 1.6727, "Vd": 32.107703, "glass_code": 673321, "glass_status": "preferred", "density": "2.89 g/cm3", "thermal_expansion": [{"temperature_range": "-30 70 °C", "coefficient": "9e-06 K-1"}], "dPgF": 0.0085}
Dispersion formula 3, range 0.4 0.7 um, coefficients 2.71201742 -0.0111228641 2 0.0276913413 -2 0.00113193687 -4 -2.4225064e-05 -6 8.91515336e-06 -8
wavelength (um)	k
0.360	1.3193E-05
0.370	4.4581E-06
0.380	1.5955E-06
0.390	6.5398E-07
0.400	3.0020E-07
0.420	7.7770E-08
0.440	2.8124E-08
0.460	7.3285E-09
0.480	3.8216E-09
0.500	3.9809E-09
0.550	4.3790E-09
0.600	4.7770E-09
0.650	5.1751E-09
0.700	1.1152E-08
0.800	2.5516E-08
0.900	7.1656E-09
1.000	7.9617E-09
1.200	9.5541E-09
1.400	1.1146E-08
1.600	3.8255E-08
1.800	1.7293E-07
2.000	2.7289E-07
2.200	9.9038E-07
2.400	1.7802E-06
