Material: glass / hikari / E-SK2
Optical constants. NIKON Zemax catalog 2017-11 (obtained from http://www.nikon.com)See also HIKARI glass data sheets
Specs: {"n_absolute": false, "wavelength_vacuum": false, "temperature": "23.0 °C", "nd": 1.60738, "Vd": 56.746973, "glass_status": "preferred", "density": "3.45 g/cm3", "thermal_expansion": [{"temperature_range": "-30 70 °C", "coefficient": "5.9e-06 K-1"}], "dPgF": -0.0017}
Dispersion formula 3, range 0.4 0.7 um, coefficients 2.5423297 -0.0100137205 2 0.0136627069 -2 0.000828586571 -4 -8.59026849e-05 -6 5.07949629e-06 -8
wavelength (um)	k
0.290	1.0628E-05
0.300	6.3485E-06
0.310	3.7352E-06
0.320	2.0906E-06
0.330	1.2133E-06
0.340	6.7225E-07
0.350	3.8787E-07
0.360	1.9867E-07
0.370	9.8803E-08
0.380	5.4927E-08
0.390	2.4928E-08
0.400	6.3726E-09
0.420	3.3439E-09
0.440	3.5032E-09
0.460	3.6624E-09
0.480	3.8216E-09
0.500	3.9809E-09
0.550	4.3790E-09
0.600	4.7770E-09
0.650	1.0355E-08
0.700	5.5732E-09
0.800	6.3694E-09
0.900	7.1656E-09
1.000	7.9617E-09
1.200	9.5541E-09
1.400	4.4653E-08
1.600	1.2739E-08
1.800	2.0195E-07
2.000	3.8663E-07
2.200	1.6896E-06
2.400	4.5020E-06
