Material: glass / hikari / E-SK11
Optical constants. NIKON Zemax catalog 2017-11 (obtained from http://www.nikon.com)See also HIKARI glass data sheets
Specs: {"n_absolute": false, "wavelength_vacuum": false, "temperature": "23.0 °C", "nd": 1.563839, "Vd": 60.679041, "glass_code": 564607, "glass_status": "preferred", "density": "2.98 g/cm3", "thermal_expansion": [{"temperature_range": "-30 70 °C", "coefficient": "7.6e-06 K-1"}], "dPgF": -0.0019}
Dispersion formula 3, range 0.4 0.7 um, coefficients 2.41034365 -0.0101286559 2 0.0126748412 -2 0.000257347078 -4 -6.24279133e-06 -6 3.35932224e-07 -8
wavelength (um)	k
0.280	8.7166E-06
0.290	4.7083E-06
0.300	2.5755E-06
0.310	1.3438E-06
0.320	6.9885E-07
0.330	3.6571E-07
0.340	1.8474E-07
0.350	9.0584E-08
0.360	4.3297E-08
0.370	2.6619E-08
0.380	2.1242E-08
0.390	6.2133E-09
0.400	6.3726E-09
0.420	6.6912E-09
0.440	1.4034E-08
0.460	1.0998E-08
0.480	3.8216E-09
0.500	3.9809E-09
0.550	4.3790E-09
0.600	4.7770E-09
0.650	1.0355E-08
0.700	5.5732E-09
