Material: glass / hikari / F2
Optical constants. NIKON Zemax catalog 2017-11 (obtained from http://www.nikon.com)See also HIKARI glass data sheets
Specs: {"n_absolute": false, "wavelength_vacuum": false, "temperature": "20.0 °C", "nd": 1.62004, "Vd": 36.331342, "glass_code": 620363, "glass_status": "preferred", "density": "3.61 g/cm3", "thermal_expansion": [{"temperature_range": "-30 70 °C", "coefficient": "9.6e-06 K-1"}]}
Dispersion formula 3, range 0.4 0.7 um, coefficients 2.545002 -0.001337396 2 0.02801151 -2 -0.0005417021 -4 0.0001501754 -6 -3.617071e-06 -8
wavelength (um)	k
0.320	1.1727E-05
0.330	3.1617E-06
0.340	9.2665E-07
0.350	2.9345E-07
0.360	1.6206E-07
0.370	8.9683E-08
0.380	6.1092E-08
0.390	3.7468E-08
0.400	2.8778E-08
0.420	1.6753E-08
0.440	1.4034E-08
0.460	3.6624E-09
0.480	3.8216E-09
0.500	3.9809E-09
0.550	4.3790E-09
0.600	4.7770E-09
0.650	5.1751E-09
0.700	5.5732E-09
