Material: glass / hikari / F3
Optical constants. NIKON Zemax catalog 2017-11 (obtained from http://www.nikon.com)See also HIKARI glass data sheets
Specs: {"n_absolute": false, "wavelength_vacuum": false, "temperature": "20.0 °C", "nd": 1.61293, "Vd": 36.996191, "glass_code": 613370, "glass_status": "preferred", "density": "3.55 g/cm3", "thermal_expansion": [{"temperature_range": "-30 70 °C", "coefficient": "9.2e-06 K-1"}], "dPgF": -0.0004}
Dispersion formula 3, range 0.4 0.7 um, coefficients 2.522283 -0.00104823 2 0.02939577 -2 -0.00139163 -4 0.0002896805 -6 -1.265089e-05 -8
wavelength (um)	k
0.320	7.6286E-06
0.330	2.1559E-06
0.340	6.7225E-07
0.350	2.3224E-07
0.360	1.2891E-07
0.370	6.8511E-08
0.380	5.4927E-08
0.390	3.1191E-08
0.400	2.2360E-08
0.420	1.6753E-08
0.440	1.4034E-08
0.460	1.0998E-08
0.480	3.8216E-09
0.500	3.9809E-09
0.550	4.3790E-09
0.600	4.7770E-09
0.650	5.1751E-09
0.700	5.5732E-09
