Material: glass / hikari / J-BAF10
Optical constants. NIKON Zemax catalog 2017-11 (obtained from http://www.nikon.com)See also HIKARI glass data sheets
Specs: {"n_absolute": false, "wavelength_vacuum": false, "temperature": "23.0 °C", "thermal_dispersion": [{"type": "Schott formula", "coefficients": "4.3684e-06 1.1836e-08 2.5445e-13 7.0944e-07 7.6949e-10 0.20995"}], "nd": 1.67003, "Vd": 47.141079, "density": "3.57 g/cm3", "thermal_expansion": [{"temperature_range": "-30 70 °C", "coefficient": "6.7e-06 K-1"}], "dPgF": -0.0027, "phosphate_resistance": 1.0}
Dispersion formula 3, range 0.365015 2.05809 um, coefficients 2.72808119 -0.00930210914 2 -7.12221204e-05 4 0.0208031569 -2 0.000457311835 -4 -2.96273778e-06 -6 1.6311403e-06 -8
wavelength (um)	k
0.340	7.1950E-06
0.350	2.6226E-06
0.360	1.1048E-06
0.365	7.5915E-07
0.370	5.1336E-07
0.380	2.6532E-07
0.390	1.5919E-07
0.400	1.0024E-07
0.420	5.7307E-08
0.440	4.2271E-08
0.460	3.3094E-08
0.480	3.0681E-08
0.500	2.3945E-08
0.550	2.1939E-08
0.600	2.3933E-08
0.650	3.1129E-08
0.700	3.3523E-08
0.800	7.0416E-08
0.900	1.4338E-08
1.000	3.9889E-08
1.200	1.9118E-08
1.400	1.1146E-08
1.600	1.0227E-07
1.800	2.4560E-07
2.000	4.3563E-07
2.200	1.0833E-06
2.400	2.2256E-06
