Material: glass / hikari / J-BK7A
Optical constants. NIKON Zemax catalog 2017-11 (obtained from http://www.nikon.com)See also HIKARI glass data sheets
Specs: {"n_absolute": false, "wavelength_vacuum": false, "temperature": "23.0 °C", "thermal_dispersion": [{"type": "Schott formula", "coefficients": "8.20811e-07 8.68946e-09 -1.28363e-13 5.04167e-07 5.18196e-10 0.147522"}], "nd": 1.5168, "Vd": 64.12995, "density": "2.51 g/cm3", "thermal_expansion": [{"temperature_range": "-30 70 °C", "coefficient": "7.4e-06 K-1"}], "dPgF": -0.001, "phosphate_resistance": 1.0}
Dispersion formula 3, range 0.365015 2.05809 um, coefficients 2.27110883 -0.00938988354 2 -0.000100277081 4 0.0109572221 -2 0.000120210067 -4 3.31079774e-06 -6 -1.48235581e-08 -8
wavelength (um)	k
0.280	1.0261E-05
0.290	5.8287E-06
0.300	2.8743E-06
0.310	1.3016E-06
0.320	6.0026E-07
0.330	3.0602E-07
0.340	1.4734E-07
0.350	7.6235E-08
0.360	4.0390E-08
0.365	3.5066E-08
0.370	2.9592E-08
0.380	3.0392E-08
0.390	1.5557E-08
0.400	1.2758E-08
0.420	1.3396E-08
0.440	1.7551E-08
0.460	1.8349E-08
0.480	1.5310E-08
0.500	1.5947E-08
0.550	1.7542E-08
0.600	1.9137E-08
0.650	3.1129E-08
0.700	3.9130E-08
0.800	7.0416E-08
0.900	2.1518E-08
1.000	3.1895E-08
1.200	2.8691E-08
1.400	2.5923E-07
1.600	1.6661E-07
1.800	5.8473E-07
2.000	1.3098E-06
2.200	3.6891E-06
2.400	5.4943E-06
