Material: glass / hikari / J-LASFH9A
Optical constants. NIKON Zemax catalog 2017-11 (obtained from http://www.nikon.com)See also HIKARI glass data sheets
Specs: {"n_absolute": false, "wavelength_vacuum": false, "temperature": "23.0 °C", "thermal_dispersion": [{"type": "Schott formula", "coefficients": "8.2131e-07 1.1982e-08 2.2062e-12 8.894e-07 1.0878e-09 0.23395"}], "nd": 1.90265, "Vd": 35.770703, "density": "4.91 g/cm3", "thermal_expansion": [{"temperature_range": "-30 70 °C", "coefficient": "6.2e-06 K-1"}], "dPgF": -0.0028}
Dispersion formula 3, range 0.365015 2.05809 um, coefficients 3.49725259 -0.0137767486 2 -0.000124635517 4 0.0410568814 -2 0.000721039098 -4 0.00013613414 -6 -1.24733129e-05 -8 9.2497468e-07 -10
wavelength (um)	k
0.280	-0.0000E+00
0.290	-0.0000E+00
