Material: glass / hikari / J-PSK03
Optical constants. NIKON Zemax catalog 2017-11 (obtained from http://www.nikon.com)See also HIKARI glass data sheets
Specs: {"n_absolute": false, "wavelength_vacuum": false, "temperature": "23.0 °C", "thermal_dispersion": [{"type": "Schott formula", "coefficients": "-9.5606e-06 9.8549e-09 -6.9387e-13 4.4088e-07 5.3066e-10 0.11712"}], "nd": 1.603, "Vd": 65.441311, "density": "3.52 g/cm3", "thermal_expansion": [{"temperature_range": "-30 70 °C", "coefficient": "8.9e-06 K-1"}], "dPgF": 0.0043, "phosphate_resistance": 4.0}
Dispersion formula 3, range 0.365015 2.05809 um, coefficients 2.53267453 -0.00950416844 2 -0.000106883723 4 0.013439736 -2 0.000141770605 -4 4.7304388e-06 -6 -8.6200083e-08 -8
wavelength (um)	k
0.310	8.6503E-06
0.320	5.8635E-06
0.330	3.6405E-06
0.340	2.1605E-06
0.350	1.1998E-06
0.360	6.7529E-07
0.365	5.0642E-07
0.370	3.7639E-07
0.380	2.0971E-07
0.390	1.3316E-07
0.400	9.3675E-08
0.420	9.1481E-08
0.440	9.9438E-08
0.460	8.5176E-08
0.480	6.5494E-08
0.500	4.8035E-08
0.550	3.9569E-08
0.600	4.7987E-08
0.650	5.7213E-08
0.700	6.1614E-08
0.800	8.3303E-08
0.900	5.7526E-08
1.000	7.9978E-08
1.200	5.7468E-08
1.400	1.1197E-07
1.600	2.4424E-07
1.800	6.1460E-07
2.000	1.1208E-06
2.200	3.0524E-06
2.400	4.7453E-06
