Material: glass / hikari / J-SFH1
Optical constants. NIKON Zemax catalog 2017-11 (obtained from http://www.nikon.com)See also HIKARI glass data sheets
Specs: {"n_absolute": false, "wavelength_vacuum": false, "temperature": "23.0 °C", "thermal_dispersion": [{"type": "Schott formula", "coefficients": "-1.0375e-05 6.4139e-09 -1.6733e-12 1.0398e-06 1.4408e-09 0.30553"}], "nd": 1.80809, "Vd": 22.738831, "density": "3.31 g/cm3", "thermal_expansion": [{"temperature_range": "-30 70 °C", "coefficient": "9.1e-06 K-1"}], "dPgF": 0.0226, "phosphate_resistance": 1.0}
Dispersion formula 3, range 0.388865 2.05809 um, coefficients 3.11637039 -0.0140103252 2 0.0455295459 -2 0.00379129507 -4 -0.000576203793 -6 0.000153793977 -8 -1.65780029e-05 -10 8.814805e-07 -12
wavelength (um)	k
0.370	1.3559E-05
0.380	4.7193E-06
0.390	1.8554E-06
0.400	9.1572E-07
0.420	3.8949E-07
0.440	2.3158E-07
0.460	1.7238E-07
0.480	1.3609E-07
0.500	1.0482E-07
0.550	5.7271E-08
0.600	4.3166E-08
0.650	5.7213E-08
0.700	5.5985E-08
0.800	7.0416E-08
0.900	4.3101E-08
1.000	5.5900E-08
1.200	3.8274E-08
1.400	3.3473E-08
1.600	1.4083E-07
1.800	3.7735E-07
2.000	5.5054E-07
2.200	1.1019E-06
2.400	1.8432E-06
