Material: glass / hikari / J-SF03
Optical constants. NIKON Zemax catalog 2017-11 (obtained from http://www.nikon.com)See also HIKARI glass data sheets
Specs: {"n_absolute": false, "wavelength_vacuum": false, "temperature": "23.0 °C", "thermal_dispersion": [{"type": "Schott formula", "coefficients": "-5.0562e-06 1.0335e-08 -1.287e-12 1.0873e-06 1.6241e-09 0.2939"}], "nd": 1.84666, "Vd": 23.796566, "density": "3.53 g/cm3", "thermal_expansion": [{"temperature_range": "-30 70 °C", "coefficient": "8.1e-06 K-1"}], "dPgF": 0.0171, "phosphate_resistance": 1.0}
Dispersion formula 3, range 0.388865 2.05809 um, coefficients 3.25089291 -0.013324411 2 0.0484040988 -2 0.0032638368 -4 -0.000401470701 -6 0.000116583198 -8 -1.27242455e-05 -10 6.96171808e-07 -12
wavelength (um)	k
0.370	8.8205E-06
0.380	3.2623E-06
0.390	1.5854E-06
0.400	9.5845E-07
0.420	4.6545E-07
0.440	2.8435E-07
0.460	1.9934E-07
0.480	1.5195E-07
0.500	1.2119E-07
0.550	6.6149E-08
0.600	7.2162E-08
0.650	9.3954E-08
0.700	1.0118E-07
0.800	1.0916E-07
0.900	5.0310E-08
1.000	6.3918E-08
1.200	2.8691E-08
1.400	1.1146E-08
1.600	1.1511E-07
1.800	2.4560E-07
2.000	3.7033E-07
2.200	6.7824E-07
2.400	1.2224E-06
