Material: glass / hikari / J-SFS3
Optical constants. NIKON Zemax catalog 2017-11 (obtained from http://www.nikon.com)See also HIKARI glass data sheets
Specs: {"n_absolute": false, "wavelength_vacuum": false, "temperature": "23.0 °C", "thermal_dispersion": [{"type": "Schott formula", "coefficients": "-4.097e-06 1.0254e-08 -1.1078e-12 9.8475e-07 1.5745e-09 0.28971"}], "nd": 1.7847, "Vd": 26.268169, "density": "3.28 g/cm3", "thermal_expansion": [{"temperature_range": "-30 70 °C", "coefficient": "8.4e-06 K-1"}], "dPgF": 0.0128, "phosphate_resistance": 1.0}
Dispersion formula 3, range 0.388865 2.05809 um, coefficients 3.05623339 -0.0128486167 2 0.0387408706 -2 0.00339109066 -4 -0.000605526065 -6 0.000141221664 -8 -1.44464234e-05 -10 6.88155857e-07 -12
wavelength (um)	k
0.370	6.0072E-06
0.380	2.4146E-06
0.390	1.1969E-06
0.400	6.7075E-07
0.420	3.0787E-07
0.440	1.8698E-07
0.460	1.3801E-07
0.480	1.0848E-07
0.500	8.4446E-08
0.550	4.8411E-08
0.600	5.2812E-08
0.650	6.2446E-08
0.700	5.5985E-08
0.800	7.0416E-08
0.900	2.8705E-08
1.000	5.5900E-08
1.200	3.8274E-08
1.400	7.8260E-08
1.600	1.5371E-07
1.800	3.4797E-07
2.000	5.3407E-07
2.200	1.2141E-06
2.400	2.2256E-06
