Material: glass / hikari / J-SF15
Optical constants. NIKON Zemax catalog 2017-11 (obtained from http://www.nikon.com)See also HIKARI glass data sheets
Specs: {"n_absolute": false, "wavelength_vacuum": false, "temperature": "23.0 °C", "thermal_dispersion": [{"type": "Schott formula", "coefficients": "-4.3615e-06 9.57e-09 -2.0346e-12 9.2867e-07 1.24e-09 0.27618"}], "nd": 1.69895, "Vd": 30.13069, "density": "2.95 g/cm3", "thermal_expansion": [{"temperature_range": "-30 70 °C", "coefficient": "9.2e-06 K-1"}], "dPgF": 0.0083, "phosphate_resistance": 1.0}
Dispersion formula 3, range 0.388865 2.05809 um, coefficients 2.79018804 -0.0110845992 2 0.0297256583 -2 0.00219337541 -4 -0.000359769888 -6 8.12762977e-05 -8 -8.02301606e-06 -10 3.73019506e-07 -12
wavelength (um)	k
0.360	1.3193E-05
0.365	7.7240E-06
0.370	4.4581E-06
0.380	1.8633E-06
0.390	9.3449E-07
0.400	5.5498E-07
0.420	2.5696E-07
0.440	1.7592E-07
0.460	1.3801E-07
0.480	1.0848E-07
0.500	8.8512E-08
0.550	4.8411E-08
0.600	4.3166E-08
0.650	5.1986E-08
0.700	5.0361E-08
0.800	7.6856E-08
0.900	5.0310E-08
1.000	5.5900E-08
1.200	3.8274E-08
1.400	1.0072E-07
1.600	1.5371E-07
1.800	4.3630E-07
2.000	7.9961E-07
2.200	1.7089E-06
2.400	2.8805E-06
