Material: glass / hikari / J-SF03HS
Optical constants. NIKON Zemax catalog 2017-11 (obtained from http://www.nikon.com)See also HIKARI glass data sheets
Specs: {"n_absolute": false, "wavelength_vacuum": false, "temperature": "23.0 °C", "thermal_dispersion": [{"type": "Schott formula", "coefficients": "-5.0562e-06 1.0335e-08 -1.28e-12 1.0873e-06 1.6241e-09 0.2939"}], "nd": 1.84666, "Vd": 23.796566, "density": "3.53 g/cm3", "thermal_expansion": [{"temperature_range": "-30 70 °C", "coefficient": "8.1e-06 K-1"}], "dPgF": 0.0171}
Dispersion formula 3, range 0.388865 2.05809 um, coefficients 3.25089291 -0.013324411 2 0.0484040988 -2 0.0032638368 -4 -0.000401470701 -6 0.000116583198 -8 -1.27242455e-05 -10 6.96171808e-07 -12
wavelength (um)	k
0.280	-0.0000E+00
0.290	-0.0000E+00
