Material: glass / hikari / J-SF14
Optical constants. NIKON Zemax catalog 2017-11 (obtained from http://www.nikon.com)See also HIKARI glass data sheets
Specs: {"n_absolute": false, "wavelength_vacuum": false, "temperature": "23.0 °C", "thermal_dispersion": [{"type": "Schott formula", "coefficients": "-2.236e-06 1.1689e-08 -1.6873e-12 9.6436e-07 1.4789e-09 0.29183"}], "nd": 1.76182, "Vd": 26.584374, "density": "3.17 g/cm3", "thermal_expansion": [{"temperature_range": "-30 70 °C", "coefficient": "8.3e-06 K-1"}], "dPgF": 0.013, "phosphate_resistance": 1.0}
Dispersion formula 3, range 0.388865 2.05809 um, coefficients 2.98193445 -0.012659384 2 0.0370386685 -2 0.00296054842 -4 -0.000481643932 -6 0.000114549779 -8 -1.16507463e-05 -10 5.68089035e-07 -12
wavelength (um)	k
0.370	7.8298E-06
0.380	2.8474E-06
0.390	1.2429E-06
0.400	6.3169E-07
0.420	2.6418E-07
0.440	1.5024E-07
0.460	1.0773E-07
0.480	8.4972E-08
0.500	7.2272E-08
0.550	4.3988E-08
0.600	3.8351E-08
0.650	3.6335E-08
0.700	4.4743E-08
0.800	7.0416E-08
0.900	2.1518E-08
1.000	5.5900E-08
1.200	1.9118E-08
1.400	6.7046E-08
1.600	1.4083E-07
1.800	3.3330E-07
2.000	4.5199E-07
2.200	1.0089E-06
2.400	1.5510E-06
