Material: glass / hikari / J-SFH2
Optical constants. NIKON Zemax catalog 2017-11 (obtained from http://www.nikon.com)See also HIKARI glass data sheets
Specs: {"n_absolute": false, "wavelength_vacuum": false, "temperature": "23.0 °C", "thermal_dispersion": [{"type": "Schott formula", "coefficients": "-8.721e-06 8.957e-09 -1.2236e-12 1.0287e-06 1.5626e-09 0.30338"}], "nd": 1.86074, "Vd": 23.077896, "density": "3.82 g/cm3", "thermal_expansion": [{"temperature_range": "-30 70 °C", "coefficient": "8.4e-06 K-1"}], "dPgF": 0.0202, "phosphate_resistance": 1.0}
Dispersion formula 3, range 0.388865 2.05809 um, coefficients 3.29659106 -0.0151583913 2 0.0496966192 -2 0.00387657158 -4 -0.000533127104 -6 0.000143134944 -8 -1.50873439e-05 -10 8.02061962e-07 -12
wavelength (um)	k
0.370	9.4775E-06
0.380	3.0894E-06
0.390	1.3369E-06
0.400	7.9088E-07
0.420	4.6545E-07
0.440	3.1870E-07
0.460	2.5386E-07
0.480	2.0398E-07
0.500	1.6657E-07
0.550	9.2891E-08
0.600	6.2477E-08
0.650	5.7213E-08
0.700	5.0361E-08
0.800	8.9757E-08
0.900	4.3101E-08
1.000	3.9889E-08
1.200	1.9118E-08
1.400	1.1146E-08
1.600	1.1511E-07
1.800	2.7477E-07
2.000	3.8663E-07
2.200	9.9038E-07
2.400	1.7593E-06
