Material: glass / hikari / J-SF13
Optical constants. NIKON Zemax catalog 2017-11 (obtained from http://www.nikon.com)See also HIKARI glass data sheets
Specs: {"n_absolute": false, "wavelength_vacuum": false, "temperature": "23.0 °C", "thermal_dispersion": [{"type": "Schott formula", "coefficients": "-3.1053e-06 1.0901e-08 -8.0763e-13 9.8199e-07 1.3488e-09 0.28347"}], "nd": 1.74077, "Vd": 27.740933, "density": "3.1 g/cm3", "thermal_expansion": [{"temperature_range": "-30 70 °C", "coefficient": "8.6e-06 K-1"}], "dPgF": 0.011, "phosphate_resistance": 1.0}
Dispersion formula 3, range 0.388865 2.05809 um, coefficients 2.9174225 -0.0121278695 2 0.0344734103 -2 0.00266756706 -4 -0.000432503622 -6 0.000100646069 -8 -1.00610625e-05 -10 4.80261151e-07 -12
wavelength (um)	k
0.370	6.2428E-06
0.380	2.4146E-06
0.390	1.1516E-06
0.400	6.7075E-07
0.420	3.1154E-07
0.440	1.9808E-07
0.460	1.4943E-07
0.480	1.2029E-07
0.500	9.6658E-08
0.550	6.1708E-08
0.600	5.7642E-08
0.650	6.7684E-08
0.700	6.7249E-08
0.800	7.6856E-08
0.900	5.0310E-08
1.000	6.3918E-08
1.200	4.7866E-08
1.400	6.7046E-08
1.600	1.6661E-07
1.800	4.2154E-07
2.000	6.3313E-07
2.200	1.3649E-06
2.400	2.2256E-06
