Material: glass / hikari / J-SF7
Optical constants. NIKON Zemax catalog 2017-11 (obtained from http://www.nikon.com)See also HIKARI glass data sheets
Specs: {"n_absolute": false, "wavelength_vacuum": false, "temperature": "23.0 °C", "thermal_dispersion": [{"type": "Schott formula", "coefficients": "-1.4715e-06 1.1001e-08 -1.5599e-12 8.3662e-07 1.0549e-09 0.26251"}], "nd": 1.6398, "Vd": 34.546201, "density": "2.76 g/cm3", "thermal_expansion": [{"temperature_range": "-30 70 °C", "coefficient": "7.9e-06 K-1"}], "dPgF": 0.0051, "phosphate_resistance": 1.0}
Dispersion formula 3, range 0.388865 2.05809 um, coefficients 2.61297958 -0.00985563637 2 -0.000106186576 4 0.0254765452 -2 0.000392630585 -4 0.000121161036 -6 -1.21702106e-05 -8 9.86930857e-07 -10
wavelength (um)	k
0.360	9.2214E-06
0.365	4.9808E-06
0.370	2.8489E-06
0.380	1.0786E-06
0.390	4.6808E-07
0.400	2.3442E-07
0.420	9.4918E-08
0.440	6.0036E-08
0.460	5.1610E-08
0.480	4.2250E-08
0.500	3.5972E-08
0.550	3.0745E-08
0.600	2.8734E-08
0.650	4.1547E-08
0.700	3.9130E-08
0.800	5.1134E-08
0.900	2.8705E-08
1.000	2.3909E-08
1.200	1.9118E-08
1.400	7.8260E-08
1.600	1.5371E-07
1.800	4.8067E-07
2.000	8.6670E-07
2.200	2.2380E-06
2.400	3.1039E-06
