Material: glass / hikari / J-SF6
Optical constants. NIKON Zemax catalog 2017-11 (obtained from http://www.nikon.com)See also HIKARI glass data sheets
Specs: {"n_absolute": false, "wavelength_vacuum": false, "temperature": "23.0 °C", "thermal_dispersion": [{"type": "Schott formula", "coefficients": "-5.4567e-06 9.6564e-09 -1.396e-12 1.0511e-06 1.5502e-09 0.2883"}], "nd": 1.80518, "Vd": 25.448348, "density": "3.34 g/cm3", "thermal_expansion": [{"temperature_range": "-30 70 °C", "coefficient": "8.6e-06 K-1"}], "dPgF": 0.014, "phosphate_resistance": 1.0}
Dispersion formula 3, range 0.388865 2.05809 um, coefficients 3.11993645 -0.0126679163 2 0.0421698355 -2 0.00304768926 -4 -0.000420720196 -6 0.000106770582 -8 -1.09382035e-05 -10 5.57077794e-07 -12
wavelength (um)	k
0.365	8.7013E-06
0.370	5.0490E-06
0.380	2.0362E-06
0.390	1.0629E-06
0.400	6.3169E-07
0.420	3.0055E-07
0.440	1.8698E-07
0.460	1.3042E-07
0.480	1.0063E-07
0.500	8.0384E-08
0.550	5.2839E-08
0.600	5.7642E-08
0.650	7.2927E-08
0.700	7.8537E-08
0.800	7.0416E-08
0.900	3.5900E-08
1.000	3.9889E-08
1.200	1.9118E-08
1.400	1.1146E-08
1.600	1.2796E-07
1.800	3.6265E-07
2.000	5.5054E-07
2.200	1.1579E-06
2.400	2.2256E-06
