Material: glass / hikari / J-SF6HS
Optical constants. NIKON Zemax catalog 2017-11 (obtained from http://www.nikon.com)See also HIKARI glass data sheets
Specs: {"n_absolute": false, "wavelength_vacuum": false, "temperature": "23.0 °C", "thermal_dispersion": [{"type": "Schott formula", "coefficients": "-5.46222e-06 9.79277e-09 2.28229e-12 1.05026e-06 1.51597e-09 0.288402"}], "nd": 1.80518, "Vd": 25.448348, "density": "3.34 g/cm3", "thermal_expansion": [{"temperature_range": "-30 70 °C", "coefficient": "8.6e-06 K-1"}], "dPgF": 0.014, "phosphate_resistance": 1.0}
Dispersion formula 3, range 0.388865 2.05809 um, coefficients 3.11993645 -0.0126679163 2 0.0421698355 -2 0.00304768926 -4 -0.000420720196 -6 0.000106770582 -8 -1.09382035e-05 -10 5.57077794e-07 -12
wavelength (um)	k
0.365	8.7013E-06
0.370	4.5951E-06
0.380	1.5447E-06
0.390	6.9253E-07
0.400	4.0691E-07
0.420	2.0325E-07
0.440	1.2475E-07
0.460	9.2677E-08
0.480	7.3273E-08
0.500	6.0135E-08
0.550	3.5155E-08
0.600	3.8351E-08
0.650	4.6764E-08
0.700	5.0361E-08
0.800	5.7555E-08
0.900	7.1656E-09
1.000	4.7890E-08
1.200	2.8691E-08
1.400	7.8260E-08
1.600	1.6661E-07
1.800	3.9206E-07
2.000	6.1658E-07
2.200	1.2893E-06
2.400	2.4414E-06
