Material: glass / hikari / J-SK15
Optical constants. NIKON Zemax catalog 2017-11 (obtained from http://www.nikon.com)See also HIKARI glass data sheets
Specs: {"n_absolute": false, "wavelength_vacuum": false, "temperature": "23.0 °C", "thermal_dispersion": [{"type": "Schott formula", "coefficients": "1.3614e-06 1.4372e-08 -1.7642e-12 4.6435e-07 4.093e-10 0.17738"}], "nd": 1.62299, "Vd": 58.122114, "density": "3.58 g/cm3", "thermal_expansion": [{"temperature_range": "-30 70 °C", "coefficient": "6e-06 K-1"}], "dPgF": -0.003, "phosphate_resistance": 2.0}
Dispersion formula 3, range 0.365015 2.05809 um, coefficients 2.59035665 -0.0102907579 2 -0.000119847148 4 0.0157254882 -2 0.000190519844 -4 6.52864472e-06 -6 -1.78313721e-08 -8
wavelength (um)	k
0.290	1.0628E-05
0.300	7.1518E-06
0.310	4.3712E-06
0.320	2.6734E-06
0.330	1.5700E-06
0.340	8.8881E-07
0.350	5.1897E-07
0.360	2.8596E-07
0.365	2.0767E-07
0.370	1.5723E-07
0.380	9.5226E-08
0.390	5.9534E-08
0.400	3.8428E-08
0.420	2.0114E-08
0.440	2.1072E-08
0.460	1.8349E-08
0.480	1.5310E-08
0.500	1.1955E-08
0.550	1.7542E-08
0.600	1.9137E-08
0.650	2.5928E-08
0.700	3.3523E-08
0.800	5.1134E-08
0.900	2.8705E-08
1.000	3.1895E-08
1.200	1.9118E-08
1.400	1.6838E-07
1.600	1.5371E-07
1.800	3.7735E-07
2.000	7.8289E-07
2.200	2.8452E-06
2.400	6.0105E-06
