Material: glass / hikari / J-SSK8
Optical constants. NIKON Zemax catalog 2017-11 (obtained from http://www.nikon.com)See also HIKARI glass data sheets
Specs: {"n_absolute": false, "wavelength_vacuum": false, "temperature": "23.0 °C", "thermal_dispersion": [{"type": "Schott formula", "coefficients": "-1.8048e-07 1.4835e-08 -1.7401e-12 5.7878e-07 4.4457e-10 0.21481"}], "nd": 1.61772, "Vd": 49.813967, "density": "3.18 g/cm3", "thermal_expansion": [{"temperature_range": "-30 70 °C", "coefficient": "7.4e-06 K-1"}], "dPgF": -0.0012, "phosphate_resistance": 3.0}
Dispersion formula 3, range 0.365015 2.05809 um, coefficients 2.56658096 -0.00972847347 2 -9.45439785e-05 4 0.0174935076 -2 0.00037143324 -4 -4.00752907e-06 -6 1.64198401e-06 -8
wavelength (um)	k
0.340	1.2460E-05
0.350	4.2172E-06
0.360	1.7127E-06
0.365	1.1632E-06
0.370	7.6955E-07
0.380	3.8656E-07
0.390	2.1856E-07
0.400	1.2994E-07
0.420	7.0935E-08
0.440	5.6476E-08
0.460	4.7899E-08
0.480	3.8389E-08
0.500	3.1959E-08
0.550	2.1939E-08
0.600	3.3540E-08
0.650	4.6764E-08
0.700	4.4743E-08
0.800	7.6856E-08
0.900	2.1518E-08
1.000	4.7890E-08
1.200	2.8691E-08
1.400	1.2323E-07
1.600	1.4083E-07
1.800	3.3330E-07
2.000	6.3313E-07
2.200	1.8057E-06
2.400	3.5586E-06
