Material: glass / hikari / J-SSK5
Optical constants. NIKON Zemax catalog 2017-11 (obtained from http://www.nikon.com)See also HIKARI glass data sheets
Specs: {"n_absolute": false, "wavelength_vacuum": false, "temperature": "23.0 °C", "thermal_dispersion": [{"type": "Schott formula", "coefficients": "-4.0838e-07 1.2283e-08 -2.4387e-12 5.7044e-07 5.5102e-10 0.21181"}], "nd": 1.65844, "Vd": 50.835655, "density": "3.75 g/cm3", "thermal_expansion": [{"temperature_range": "-30 70 °C", "coefficient": "7e-06 K-1"}], "dPgF": -0.0013, "phosphate_resistance": 3.0}
Dispersion formula 3, range 0.365015 2.05809 um, coefficients 2.69546608 -0.00946960473 2 -0.000110686762 4 0.0190535266 -2 0.000349767067 -4 1.61235917e-06 -6 1.06076791e-06 -8
wavelength (um)	k
0.340	8.1054E-06
0.350	3.0879E-06
0.360	1.3695E-06
0.365	9.5417E-07
0.370	6.5702E-07
0.380	3.1860E-07
0.390	1.8873E-07
0.400	1.1671E-07
0.420	5.7307E-08
0.440	4.2271E-08
0.460	3.3094E-08
0.480	2.6832E-08
0.500	1.9944E-08
0.550	1.7542E-08
0.600	1.4345E-08
0.650	2.0732E-08
0.700	3.3523E-08
0.800	5.7555E-08
0.900	2.1518E-08
1.000	3.9889E-08
1.200	2.8691E-08
1.400	8.9485E-08
1.600	1.4083E-07
1.800	3.4797E-07
2.000	6.6629E-07
2.200	1.8446E-06
2.400	4.2617E-06
