Material: glass / hikari / K3
Optical constants. NIKON Zemax catalog 2017-11 (obtained from http://www.nikon.com)See also HIKARI glass data sheets
Specs: {"n_absolute": false, "wavelength_vacuum": false, "temperature": "20.0 °C", "nd": 1.51823, "Vd": 58.909268, "glass_code": 518589, "glass_status": "preferred", "density": "2.54 g/cm3", "thermal_expansion": [{"temperature_range": "-30 70 °C", "coefficient": "1.07e-05 K-1"}], "dPgF": -0.0001}
Dispersion formula 3, range 0.4 0.7 um, coefficients 2.27187 -0.008333884 2 0.0119425 -2 0.0001494434 -4 8.303797e-06 -6 -2.694974e-07 -8
wavelength (um)	k
0.300	5.7485E-06
0.310	1.9698E-06
0.320	7.3258E-07
0.330	2.7668E-07
0.340	9.9199E-08
0.350	2.7992E-08
0.360	2.8792E-08
0.370	2.0683E-08
0.380	2.4289E-08
0.390	1.2439E-08
0.400	3.1847E-09
0.420	3.3439E-09
0.440	3.5032E-09
0.460	3.6624E-09
0.480	3.8216E-09
0.500	3.9809E-09
0.550	4.3790E-09
0.600	4.7770E-09
0.650	5.1751E-09
0.700	5.5732E-09
