Material: glass / hikari / KF6
Optical constants. NIKON Zemax catalog 2017-11 (obtained from http://www.nikon.com)See also HIKARI glass data sheets
Specs: {"n_absolute": false, "wavelength_vacuum": false, "temperature": "20.0 °C", "nd": 1.51742, "Vd": 52.30467, "glass_code": 517523, "glass_status": "preferred", "density": "2.66 g/cm3", "thermal_expansion": [{"temperature_range": "-30 70 °C", "coefficient": "8.3e-06 K-1"}], "dPgF": -0.0007}
Dispersion formula 3, range 0.4 0.7 um, coefficients 2.249554 0.002262245 2 0.02217465 -2 -0.002282488 -4 0.0003444373 -6 -1.737741e-05 -8
wavelength (um)	k
0.310	1.7598E-06
0.320	5.6823E-07
0.330	2.1611E-07
0.340	8.5202E-08
0.350	3.3625E-08
0.360	1.4360E-08
0.370	8.8464E-09
0.380	1.2120E-08
0.390	3.1051E-09
0.400	3.1847E-09
0.420	3.3439E-09
0.440	3.5032E-09
0.460	3.6624E-09
0.480	3.8216E-09
0.500	3.9809E-09
0.550	4.3790E-09
0.600	4.7770E-09
0.650	5.1751E-09
0.700	5.5707E-10
