Material: glass / hikari / KZFS4
Optical constants. NIKON Zemax catalog 2017-11 (obtained from http://www.nikon.com)See also HIKARI glass data sheets
Specs: {"n_absolute": false, "wavelength_vacuum": false, "temperature": "20.0 °C", "nd": 1.6134, "Vd": 44.291828, "glass_code": 613443, "glass_status": "preferred", "density": "3.2 g/cm3", "thermal_expansion": [{"temperature_range": "-30 70 °C", "coefficient": "5.4e-06 K-1"}], "dPgF": -0.0097}
Dispersion formula 3, range 0.4 0.7 um, coefficients 2.554362 -0.0165228 2 0.01560256 -2 0.001407955 -4 -0.0001318867 -6 8.507447e-06 -8
wavelength (um)	k
0.320	6.7718E-06
0.330	3.6405E-06
0.340	2.0428E-06
0.350	1.1998E-06
0.360	6.7529E-07
0.370	4.1004E-07
0.380	2.3248E-07
0.390	1.2993E-07
0.400	7.7326E-08
0.420	3.0216E-08
0.440	1.7551E-08
0.460	3.6624E-09
0.480	3.8216E-09
0.500	3.9809E-09
0.550	4.3790E-09
0.600	4.7770E-09
0.650	5.1751E-09
0.700	5.5707E-10
