Material: glass / hikari / LAF11
Optical constants. NIKON Zemax catalog 2017-11 (obtained from http://www.nikon.com)See also HIKARI glass data sheets
Specs: {"n_absolute": false, "wavelength_vacuum": false, "temperature": "20.0 °C", "nd": 1.75692, "Vd": 31.704801, "glass_code": 757317, "glass_status": "preferred", "density": "4.58 g/cm3", "thermal_expansion": [{"temperature_range": "-30 70 °C", "coefficient": "6.4e-06 K-1"}], "dPgF": -0.0001}
Dispersion formula 3, range 0.4 0.7 um, coefficients 2.809631 0.1142767 2 0.1251064 -2 -0.0221709 -4 0.002916176 -6 -0.0001356855 -8
wavelength (um)	k
0.360	6.3234E-06
0.370	2.4850E-06
0.380	1.0786E-06
0.390	5.4111E-07
0.400	2.7928E-07
0.420	1.0525E-07
0.440	5.2919E-08
0.460	2.5714E-08
0.480	1.1476E-08
0.500	3.9809E-09
0.550	4.3790E-09
0.600	4.7770E-09
0.650	5.1751E-09
0.700	-0.0000E+00
