Material: glass / hikari / LAF2
Optical constants. NIKON Zemax catalog 2017-11 (obtained from http://www.nikon.com)See also HIKARI glass data sheets
Specs: {"n_absolute": false, "wavelength_vacuum": false, "temperature": "20.0 °C", "nd": 1.744, "Vd": 45.009021, "glass_code": 744450, "glass_status": "preferred", "density": "4.09 g/cm3", "thermal_expansion": [{"temperature_range": "-30 70 °C", "coefficient": "7.7e-06 K-1"}], "dPgF": -0.0068}
Dispersion formula 3, range 0.4 0.7 um, coefficients 2.966463 -0.01184749 2 0.02659597 -2 7.166823e-05 -4 6.759269e-05 -6 -1.704166e-06 -8
wavelength (um)	k
0.330	1.2093E-05
0.340	4.4933E-06
0.350	1.9868E-06
0.360	1.0218E-06
0.370	5.8431E-07
0.380	3.5239E-07
0.390	2.2522E-07
0.400	1.4990E-07
0.420	8.4619E-08
0.440	5.6476E-08
0.460	3.6790E-08
0.480	1.9146E-08
0.500	3.9809E-09
0.550	4.3790E-09
0.600	4.7770E-09
0.650	5.1751E-09
0.700	5.5732E-09
