Material: glass / hikari / LAF3
Optical constants. NIKON Zemax catalog 2017-11 (obtained from http://www.nikon.com)See also HIKARI glass data sheets
Specs: {"n_absolute": false, "wavelength_vacuum": false, "temperature": "20.0 °C", "nd": 1.717, "Vd": 48.125992, "glass_code": 717481, "glass_status": "preferred", "density": "3.77 g/cm3", "thermal_expansion": [{"temperature_range": "-30 70 °C", "coefficient": "7.9e-06 K-1"}], "dPgF": -0.0078}
Dispersion formula 3, range 0.4 0.7 um, coefficients 2.830874 0.02556412 2 0.05044859 -2 -0.00670398 -4 0.0008789224 -6 -4.052452e-05 -8
wavelength (um)	k
0.330	7.3882E-06
0.340	3.4442E-06
0.350	1.7162E-06
0.360	9.8116E-07
0.370	5.8431E-07
0.380	3.5239E-07
0.390	2.1856E-07
0.400	1.4323E-07
0.420	7.4350E-08
0.440	4.9366E-08
0.460	2.9402E-08
0.480	1.1476E-08
0.500	3.9809E-09
0.550	4.3790E-09
0.600	4.7770E-09
0.650	5.1751E-09
0.700	5.5732E-09
