Material: glass / hikari / LAF7
Optical constants. NIKON Zemax catalog 2017-11 (obtained from http://www.nikon.com)See also HIKARI glass data sheets
Specs: {"n_absolute": false, "wavelength_vacuum": false, "temperature": "20.0 °C", "nd": 1.749501, "Vd": 35.186731, "glass_code": 750352, "glass_status": "preferred", "density": "4.41 g/cm3", "thermal_expansion": [{"temperature_range": "-30 70 °C", "coefficient": "6.3e-06 K-1"}], "dPgF": -0.0027}
Dispersion formula 3, range 0.4 0.7 um, coefficients 2.871638 0.05586319 2 0.08260113 -2 -0.01257133 -4 0.00171414 -6 -7.977217e-05 -8
wavelength (um)	k
0.340	5.7367E-06
0.350	2.2866E-06
0.360	1.1048E-06
0.370	6.2044E-07
0.380	3.5239E-07
0.390	2.2189E-07
0.400	1.4656E-07
0.420	7.0935E-08
0.440	3.5190E-08
0.460	1.8349E-08
0.480	3.8216E-09
0.500	3.9809E-09
0.550	4.3790E-09
0.600	4.7770E-09
0.650	5.1751E-09
0.700	-0.0000E+00
