Material: glass / hikari / LAF9
Optical constants. NIKON Zemax catalog 2017-11 (obtained from http://www.nikon.com)See also HIKARI glass data sheets
Specs: {"n_absolute": false, "wavelength_vacuum": false, "temperature": "20.0 °C", "nd": 1.79504, "Vd": 28.565137, "glass_code": 795286, "glass_status": "preferred", "density": "4.97 g/cm3", "thermal_expansion": [{"temperature_range": "-30 70 °C", "coefficient": "7.5e-06 K-1"}], "dPgF": 0.0036}
Dispersion formula 3, range 0.4 0.7 um, coefficients 3.097921 -0.01112466 2 0.0388245 -2 0.001949184 -4 -6.840198e-05 -6 1.330305e-05 -8
wavelength (um)	k
0.360	1.1207E-05
0.370	4.3273E-06
0.380	1.7533E-06
0.390	8.1115E-07
0.400	4.0691E-07
0.420	1.3644E-07
0.440	6.0036E-08
0.460	2.9402E-08
0.480	7.6471E-09
0.500	3.9809E-09
0.550	4.3790E-09
0.600	4.7770E-09
0.650	5.1751E-09
0.700	-0.0000E+00
