Material: glass / hikari / LAK04
Optical constants. NIKON Zemax catalog 2017-11 (obtained from http://www.nikon.com)See also HIKARI glass data sheets
Specs: {"n_absolute": false, "wavelength_vacuum": false, "temperature": "20.0 °C", "nd": 1.651, "Vd": 56.171381, "glass_code": 651562, "glass_status": "preferred", "density": "3.28 g/cm3", "thermal_expansion": [{"temperature_range": "-30 70 °C", "coefficient": "8e-06 K-1"}], "dPgF": -0.0012}
Dispersion formula 3, range 0.4 0.7 um, coefficients 2.676809 -0.01021733 2 0.01773895 -2 2.822472e-05 -4 4.3274e-05 -6 -2.158473e-06 -8
wavelength (um)	k
0.320	1.1727E-05
0.330	6.6327E-06
0.340	3.9764E-06
0.350	2.2866E-06
0.360	1.2785E-06
0.370	7.3156E-07
0.380	3.8656E-07
0.390	2.3525E-07
0.400	1.4323E-07
0.420	6.7523E-08
0.440	4.9366E-08
0.460	3.3094E-08
0.480	1.5310E-08
0.500	3.9809E-09
0.550	4.3790E-09
0.600	1.4345E-08
0.650	1.5541E-08
0.700	5.5732E-09
