Material: glass / hikari / LAK12
Optical constants. NIKON Zemax catalog 2017-11 (obtained from http://www.nikon.com)See also HIKARI glass data sheets
Specs: {"n_absolute": false, "wavelength_vacuum": false, "temperature": "20.0 °C", "nd": 1.6779, "Vd": 55.397516, "glass_code": 678554, "glass_status": "preferred", "density": "4.0 g/cm3", "thermal_expansion": [{"temperature_range": "-30 70 °C", "coefficient": "8.6e-06 K-1"}], "dPgF": -0.007}
Dispersion formula 3, range 0.4 0.7 um, coefficients 2.780948 -0.0236625 2 0.008676537 -2 0.00294181 -4 -0.0003515541 -6 1.844065e-05 -8
wavelength (um)	k
0.290	4.8930E-06
0.300	3.2159E-06
0.310	2.0820E-06
0.320	1.3871E-06
0.330	8.6267E-07
0.340	5.0414E-07
0.350	2.9345E-07
0.360	2.0790E-07
0.370	1.5103E-07
0.380	9.2107E-08
0.390	6.2700E-08
0.400	6.4307E-08
0.420	3.3591E-08
0.440	3.5190E-08
0.460	3.6790E-08
0.480	3.8389E-08
0.500	3.9809E-09
0.550	4.3790E-09
0.600	4.7770E-09
0.650	5.1751E-09
0.700	-0.0000E+00
