Material: glass / hikari / LAK9
Optical constants. NIKON Zemax catalog 2017-11 (obtained from http://www.nikon.com)See also HIKARI glass data sheets
Specs: {"n_absolute": false, "wavelength_vacuum": false, "temperature": "20.0 °C", "nd": 1.691, "Vd": 54.814152, "glass_code": 691548, "glass_status": "preferred", "density": "3.46 g/cm3", "thermal_expansion": [{"temperature_range": "-30 70 °C", "coefficient": "7.7e-06 K-1"}], "dPgF": -0.0088}
Dispersion formula 3, range 0.4 0.7 um, coefficients 2.78212 0.003869888 2 0.03229938 -2 -0.003179159 -4 0.0004358368 -6 -2.062241e-05 -8
wavelength (um)	k
0.310	1.1361E-05
0.320	8.9294E-06
0.330	5.7964E-06
0.340	3.5426E-06
0.350	2.1628E-06
0.360	1.2785E-06
0.370	7.3156E-07
0.380	4.2112E-07
0.390	2.4531E-07
0.400	1.5324E-07
0.420	5.7307E-08
0.440	3.5190E-08
0.460	1.8349E-08
0.480	3.8216E-09
0.500	3.9809E-09
0.550	4.3790E-09
0.600	1.9137E-08
0.650	2.0732E-08
0.700	2.2326E-08
