Material: glass / hikari / LASF02
Optical constants. NIKON Zemax catalog 2017-11 (obtained from http://www.nikon.com)See also HIKARI glass data sheets
Specs: {"n_absolute": false, "wavelength_vacuum": false, "temperature": "20.0 °C", "nd": 1.79952, "Vd": 42.242359, "glass_code": 800422, "glass_status": "preferred", "density": "4.33 g/cm3", "thermal_expansion": [{"temperature_range": "-30 70 °C", "coefficient": "7.4e-06 K-1"}], "dPgF": -0.0075}
Dispersion formula 3, range 0.4 0.7 um, coefficients 3.156117 -0.01727997 2 0.02733369 -2 0.001199918 -4 -6.256744e-05 -6 5.655719e-06 -8
wavelength (um)	k
0.340	1.2460E-05
0.350	4.7761E-06
0.360	1.9857E-06
0.370	9.2662E-07
0.380	5.2723E-07
0.390	3.1323E-07
0.400	2.1393E-07
0.420	1.1216E-07
0.440	7.4313E-08
0.460	4.7899E-08
0.480	3.4533E-08
0.500	1.5947E-08
0.550	4.3790E-09
0.600	4.7770E-09
0.650	5.1751E-09
0.700	1.1152E-08
