Material: glass / hikari / LASFH6
Optical constants. NIKON Zemax catalog 2017-11 (obtained from http://www.nikon.com)See also HIKARI glass data sheets
Specs: {"n_absolute": false, "wavelength_vacuum": false, "temperature": "20.0 °C", "nd": 1.8061, "Vd": 33.267264, "glass_code": 806333, "glass_status": "preferred", "density": "4.62 g/cm3", "thermal_expansion": [{"temperature_range": "-30 70 °C", "coefficient": "7.5e-06 K-1"}], "dPgF": -0.0004}
Dispersion formula 3, range 0.4 0.7 um, coefficients 3.167451 -0.02220547 2 0.02630248 -2 0.004028856 -4 -0.0004018775 -6 2.821967e-05 -8
wavelength (um)	k
0.360	1.3193E-05
0.370	5.2173E-06
0.380	2.3482E-06
0.390	1.1516E-06
0.400	6.3169E-07
0.420	2.6418E-07
0.440	1.4293E-07
0.460	8.8925E-08
0.480	5.3854E-08
0.500	3.5972E-08
0.550	2.1939E-08
0.600	1.4345E-08
0.650	1.0355E-08
0.700	5.5732E-09
