Material: glass / hikari / LF5
Optical constants. NIKON Zemax catalog 2017-11 (obtained from http://www.nikon.com)See also HIKARI glass data sheets
Specs: {"n_absolute": false, "wavelength_vacuum": false, "temperature": "20.0 °C", "nd": 1.58144, "Vd": 40.777871, "glass_code": 581408, "glass_status": "preferred", "density": "3.24 g/cm3", "thermal_expansion": [{"temperature_range": "-30 70 °C", "coefficient": "1.06e-05 K-1"}], "dPgF": -0.0008}
Dispersion formula 3, range 0.4 0.7 um, coefficients 2.439252 -0.005116676 2 0.02191912 -2 -0.000308089 -4 0.0001181173 -6 -4.409047e-06 -8
wavelength (um)	k
0.310	1.1361E-05
0.320	3.1522E-06
0.330	8.9940E-07
0.340	3.1530E-07
0.350	1.4286E-07
0.360	4.0390E-08
0.370	1.4759E-08
0.380	1.5158E-08
0.390	3.1051E-09
0.400	3.1847E-09
0.420	3.3439E-09
0.440	3.5032E-09
0.460	3.6624E-09
0.480	3.8216E-09
0.500	3.9809E-09
0.550	4.3790E-09
0.600	4.7770E-09
0.650	5.1751E-09
0.700	5.5707E-10
