Material: glass / hikari / LF6
Optical constants. NIKON Zemax catalog 2017-11 (obtained from http://www.nikon.com)See also HIKARI glass data sheets
Specs: {"n_absolute": false, "wavelength_vacuum": false, "temperature": "20.0 °C", "nd": 1.56732, "Vd": 42.699778, "glass_code": 567427, "glass_status": "preferred", "density": "3.11 g/cm3", "thermal_expansion": [{"temperature_range": "-30 70 °C", "coefficient": "1.1e-05 K-1"}], "dPgF": -0.002}
Dispersion formula 3, range 0.4 0.7 um, coefficients 2.402616 -0.005310264 2 0.01706231 -2 0.000992587 -4 -0.0001107158 -6 9.212954e-06 -8
wavelength (um)	k
0.310	8.6503E-06
0.320	2.0906E-06
0.330	6.1902E-07
0.340	2.0801E-07
0.350	8.7708E-08
0.360	6.3729E-08
0.370	4.4500E-08
0.380	3.9569E-08
0.390	3.1191E-08
0.400	2.5567E-08
0.420	2.3478E-08
0.440	2.1072E-08
0.460	2.2030E-08
0.480	1.5310E-08
0.500	1.1955E-08
0.550	4.3790E-09
0.600	9.5589E-09
0.650	2.0732E-08
0.700	1.1141E-10
