Material: glass / hikari / LF7
Optical constants. NIKON Zemax catalog 2017-11 (obtained from http://www.nikon.com)See also HIKARI glass data sheets
Specs: {"n_absolute": false, "wavelength_vacuum": false, "temperature": "20.0 °C", "nd": 1.57501, "Vd": 41.5364, "glass_code": 575415, "glass_status": "preferred", "density": "3.2 g/cm3", "thermal_expansion": [{"temperature_range": "-30 70 °C", "coefficient": "9.5e-06 K-1"}], "dPgF": -0.0013}
Dispersion formula 3, range 0.4 0.7 um, coefficients 2.440824 -0.02002119 2 0.01089699 -2 0.002343396 -4 -0.0002198222 -6 1.221823e-05 -8
wavelength (um)	k
0.310	1.1361E-05
0.320	2.7472E-06
0.330	7.9072E-07
0.340	2.6410E-07
0.350	1.1080E-07
0.360	7.2530E-08
0.370	4.7491E-08
0.380	3.9569E-08
0.390	2.8058E-08
0.400	2.2360E-08
0.420	1.6753E-08
0.440	1.7551E-08
0.460	1.4672E-08
0.480	7.6471E-09
0.500	3.9809E-09
0.550	4.3790E-09
0.600	4.7770E-09
0.650	5.1751E-09
0.700	5.5705E-11
