Material: glass / hikari / LLF1
Optical constants. NIKON Zemax catalog 2017-11 (obtained from http://www.nikon.com)See also HIKARI glass data sheets
Specs: {"n_absolute": false, "wavelength_vacuum": false, "temperature": "20.0 °C", "nd": 1.548139, "Vd": 45.867807, "glass_code": 548459, "glass_status": "preferred", "density": "2.95 g/cm3", "thermal_expansion": [{"temperature_range": "-30 70 °C", "coefficient": "9.7e-06 K-1"}], "dPgF": -0.0018}
Dispersion formula 3, range 0.4 0.7 um, coefficients 2.362448 -0.01634943 2 0.008894781 -2 0.002311903 -4 -0.000257494 -6 1.457859e-05 -8
wavelength (um)	k
0.310	5.0330E-06
0.320	1.2587E-06
0.330	3.9607E-07
0.340	1.6741E-07
0.350	9.6344E-08
0.360	2.5900E-08
0.370	1.4759E-08
0.380	2.1242E-08
0.390	3.1051E-09
0.400	6.3726E-09
0.420	1.3396E-08
0.440	7.0098E-09
0.460	7.3285E-09
0.480	3.8216E-09
0.500	3.9809E-09
0.550	4.3790E-09
0.600	4.7770E-09
0.650	5.1751E-09
0.700	5.5732E-09
