Material: glass / hikari / LLF2
Optical constants. NIKON Zemax catalog 2017-11 (obtained from http://www.nikon.com)See also HIKARI glass data sheets
Specs: {"n_absolute": false, "wavelength_vacuum": false, "temperature": "20.0 °C", "nd": 1.54072, "Vd": 47.224798, "glass_code": 541472, "glass_status": "preferred", "density": "2.87 g/cm3", "thermal_expansion": [{"temperature_range": "-30 70 °C", "coefficient": "8.9e-06 K-1"}]}
Dispersion formula 3, range 0.4 0.7 um, coefficients 2.311056 0.003592112 2 0.02635349 -2 -0.002861817 -4 0.0004429611 -6 -2.227926e-05 -8
wavelength (um)	k
0.310	4.0969E-06
0.320	9.8208E-07
0.330	2.7668E-07
0.340	9.3592E-08
0.350	3.0807E-08
0.360	3.4585E-08
0.370	2.9592E-08
0.380	2.4289E-08
0.390	1.5557E-08
0.400	9.5636E-09
0.420	6.6912E-09
0.440	3.5032E-09
0.460	3.6624E-09
0.480	3.8216E-09
0.500	3.9809E-09
0.550	4.3790E-09
0.600	4.7770E-09
0.650	5.1751E-09
0.700	5.5732E-09
