Material: glass / hikari / P-LASFH18S
Optical constants. NIKON Zemax catalog 2017-11 (obtained from http://www.nikon.com)See also HIKARI glass data sheets
Comments: Low Tg glass
Specs: {"n_absolute": false, "wavelength_vacuum": false, "temperature": "23.0 °C", "nd": 1.85117, "Vd": 40.049954, "glass_status": "preferred", "density": "5.27 g/cm3", "thermal_expansion": [{"temperature_range": "-30 70 °C", "coefficient": "7.3e-06 K-1"}], "dPgF": -0.0072}
Dispersion formula 3, range 0.4 0.7 um, coefficients 3.32566886 -0.0131396072 2 0.0340298328 -2 0.000803745646 -4 1.03681091e-05 -6 2.05840857e-06 -8 -0.000123587896 4
wavelength (um)	k
0.330	1.2093E-05
0.340	7.6121E-06
0.350	3.8611E-06
0.360	1.8734E-06
0.370	1.0084E-06
0.380	5.6345E-07
0.390	3.6167E-07
0.400	2.3100E-07
0.420	1.2601E-07
0.440	8.1473E-08
0.460	5.9043E-08
0.480	4.2250E-08
0.500	2.7950E-08
0.550	8.7623E-09
0.600	9.5589E-09
0.650	1.0355E-08
0.700	1.1152E-08
0.800	1.2745E-08
0.900	2.8705E-08
1.000	1.5931E-08
1.200	9.5541E-09
1.400	1.1146E-08
1.600	2.5490E-08
1.800	1.0062E-07
2.000	3.8663E-07
2.200	1.0833E-06
2.400	4.2617E-06
