Material: glass / hikari / P-LASFH11S
Optical constants. NIKON Zemax catalog 2017-11 (obtained from http://www.nikon.com)See also HIKARI glass data sheets
Comments: Low Tg glass
Specs: {"n_absolute": false, "wavelength_vacuum": false, "temperature": "23.0 °C", "nd": 1.77387, "Vd": 47.253126, "glass_status": "preferred", "density": "4.63 g/cm3", "thermal_expansion": [{"temperature_range": "-30 70 °C", "coefficient": "7.4e-06 K-1"}], "dPgF": -0.0088}
Dispersion formula 3, range 0.4 0.7 um, coefficients 3.07248878 -0.0130910046 2 0.0257175166 -2 0.000468797447 -4 8.26140166e-06 -6 4.96911029e-07 -8 -0.000149735345 4
wavelength (um)	k
0.280	1.0261E-05
0.290	6.4926E-06
0.300	4.5290E-06
0.310	3.6255E-06
0.320	2.2704E-06
0.330	1.5226E-06
0.340	1.0040E-06
0.350	6.5654E-07
0.360	4.3208E-07
0.370	2.6477E-07
0.380	1.8068E-07
0.390	1.2993E-07
0.400	1.0681E-07
0.420	7.7770E-08
0.440	6.7167E-08
0.460	5.5324E-08
0.480	4.6114E-08
0.500	3.9989E-08
0.550	3.9569E-08
0.600	5.2812E-08
0.650	6.2446E-08
0.700	7.8537E-08
0.800	1.3511E-07
0.900	2.1518E-08
1.000	3.9889E-08
1.200	1.9118E-08
1.400	3.3473E-08
1.600	8.9440E-08
1.800	2.1649E-07
2.000	5.5054E-07
2.200	1.4788E-06
2.400	6.2740E-06
