Material: glass / hikari / P-PSKH1S
Optical constants. NIKON Zemax catalog 2017-11 (obtained from http://www.nikon.com)See also HIKARI glass data sheets
Comments: Low Tg glass
Specs: {"n_absolute": false, "wavelength_vacuum": false, "temperature": "23.0 °C", "nd": 1.59255, "Vd": 67.858832, "glass_status": "preferred", "density": "4.11 g/cm3", "thermal_expansion": [{"temperature_range": "-30 70 °C", "coefficient": "1.32e-05 K-1"}], "dPgF": 0.0138}
Dispersion formula 3, range 0.4 0.7 um, coefficients 2.50002967 -0.00669362188 2 0.0128441577 -2 0.000147794104 -4 2.25228249e-06 -6 5.14209979e-08 -8 -5.44106184e-05 4
wavelength (um)	k
0.300	9.3393E-06
0.310	5.4451E-06
0.320	2.9824E-06
0.330	1.6181E-06
0.340	8.5149E-07
0.350	4.5265E-07
0.360	2.3576E-07
0.370	1.2019E-07
0.380	7.0363E-08
0.390	5.0058E-08
0.400	3.5208E-08
0.420	3.6968E-08
0.440	3.5190E-08
0.460	3.3094E-08
0.480	3.0681E-08
0.500	2.7950E-08
0.550	3.0745E-08
0.600	2.3933E-08
0.650	3.6335E-08
0.700	5.0361E-08
0.800	6.3982E-08
0.900	7.1656E-09
1.000	7.9617E-09
1.200	9.5541E-09
1.400	1.1146E-08
1.600	1.2739E-08
1.800	4.3036E-08
2.000	4.7818E-08
2.200	7.0169E-08
2.400	1.1494E-07
