Material: glass / hikari / P-SK12S
Optical constants. NIKON Zemax catalog 2017-11 (obtained from http://www.nikon.com)See also HIKARI glass data sheets
Comments: Low Tg glass
Specs: {"n_absolute": false, "wavelength_vacuum": false, "temperature": "23.0 °C", "nd": 1.58593, "Vd": 59.65217, "glass_status": "preferred", "density": "2.8 g/cm3", "thermal_expansion": [{"temperature_range": "-30 70 °C", "coefficient": "8.9e-06 K-1"}], "dPgF": -0.0033}
Dispersion formula 3, range 0.4 0.7 um, coefficients 2.4767282 -0.0103779856 2 0.013934653 -2 0.000196558619 -4 4.37662846e-07 -6 2.28673729e-07 -8 -9.02510603e-05 4
wavelength (um)	k
0.280	5.9253E-06
0.290	3.4942E-06
0.300	2.0710E-06
0.310	1.1793E-06
0.320	6.3270E-07
0.330	3.6571E-07
0.340	1.9926E-07
0.350	1.1951E-07
0.360	7.5470E-08
0.370	5.0485E-08
0.380	3.9569E-08
0.390	3.4328E-08
0.400	2.8778E-08
0.420	3.0216E-08
0.440	3.1655E-08
0.460	2.9402E-08
0.480	2.6832E-08
0.500	2.3945E-08
0.550	2.1939E-08
0.600	2.8734E-08
0.650	3.6335E-08
0.700	3.3523E-08
0.800	4.4720E-08
0.900	7.1656E-09
1.000	7.9617E-09
1.200	9.5541E-09
1.400	1.1146E-08
1.600	2.5490E-08
1.800	1.4396E-07
2.000	2.4054E-07
2.200	9.1643E-07
2.400	2.4414E-06
