Material: glass / hikari / P-SK5S
Optical constants. NIKON Zemax catalog 2017-11 (obtained from http://www.nikon.com)See also HIKARI glass data sheets
Comments: Low Tg glass
Specs: {"n_absolute": false, "wavelength_vacuum": false, "temperature": "23.0 °C", "nd": 1.58887, "Vd": 61.15108, "glass_status": "preferred", "density": "2.93 g/cm3", "thermal_expansion": [{"temperature_range": "-30 70 °C", "coefficient": "8.6e-06 K-1"}], "dPgF": -0.0031}
Dispersion formula 3, range 0.4 0.7 um, coefficients 2.4871547 -0.0109451454 2 0.0136540989 -2 0.000187911865 -4 1.26085644e-08 -6 2.3976508e-07 -8 -9.97026157e-05 4
wavelength (um)	k
0.280	1.0261E-05
0.290	6.9134E-06
0.300	3.8422E-06
0.310	2.1400E-06
0.320	1.1766E-06
0.330	6.5247E-07
0.340	3.4587E-07
0.350	2.0512E-07
0.360	1.1695E-07
0.370	7.1527E-08
0.380	5.4927E-08
0.390	4.0610E-08
0.400	3.5208E-08
0.420	3.0216E-08
0.440	2.8124E-08
0.460	2.5714E-08
0.480	2.2987E-08
0.500	2.3945E-08
0.550	1.7542E-08
0.600	2.8734E-08
0.650	3.1129E-08
0.700	3.3523E-08
0.800	6.3694E-09
0.900	7.1656E-09
1.000	7.9617E-09
1.200	9.5541E-09
1.400	2.2304E-08
1.600	7.6624E-08
1.800	5.6982E-07
2.000	4.5199E-07
2.200	1.6319E-06
2.400	3.7901E-06
