Material: glass / hikari / Q-FK01S
Optical constants. NIKON Zemax catalog 2017-11 (obtained from http://www.nikon.com)See also HIKARI glass data sheets
Comments: For mold lens
Specs: {"n_absolute": false, "wavelength_vacuum": false, "temperature": "23.0 °C", "thermal_dispersion": [{"type": "Schott formula", "coefficients": "-1.6982e-05 -4.1144e-09 1.7023e-13 4.3085e-07 5.3884e-11 0.10907"}], "nd": 1.49649, "Vd": 81.671513, "density": "3.61 g/cm3", "thermal_expansion": [{"temperature_range": "-30 70 °C", "coefficient": "1.24e-05 K-1"}], "dPgF": 0.0298, "phosphate_resistance": 4.0}
Dispersion formula 3, range 0.365015 2.05809 um, coefficients 2.21641522 -0.00558178713 2 -2.81150445e-05 4 0.00836994471 -2 8.86932152e-05 -4 2.35585693e-07 -6 4.16602253e-08 -8
wavelength (um)	k
0.280	1.0261E-05
0.290	6.9134E-06
0.300	4.5290E-06
0.310	2.7350E-06
0.320	1.5691E-06
0.330	8.2645E-07
0.340	4.3972E-07
0.350	2.1714E-07
0.360	1.1098E-07
0.365	7.9502E-08
0.370	6.2490E-08
0.380	3.9569E-08
0.390	3.1191E-08
0.400	2.8778E-08
0.420	3.0216E-08
0.440	3.5190E-08
0.460	3.3094E-08
0.480	3.0681E-08
0.500	2.7950E-08
0.550	3.0745E-08
0.600	3.3540E-08
0.650	4.6764E-08
0.700	4.4743E-08
0.800	8.3303E-08
0.900	7.1980E-08
1.000	9.6071E-08
1.200	4.7866E-08
1.400	5.5844E-08
1.600	1.0227E-07
1.800	2.0195E-07
2.000	1.9214E-07
2.200	2.6460E-07
2.400	2.3057E-07
