Material: glass / hikari / Q-LAK52S
Optical constants. NIKON Zemax catalog 2017-11 (obtained from http://www.nikon.com)See also HIKARI glass data sheets
Comments: For mold lens
Specs: {"n_absolute": false, "wavelength_vacuum": false, "temperature": "23.0 °C", "thermal_dispersion": [{"type": "Schott formula", "coefficients": "4.069e-06 1.2323e-08 -1.158e-12 5.3706e-07 5.061e-10 0.17754"}], "nd": 1.67798, "Vd": 54.893431, "density": "3.55 g/cm3", "thermal_expansion": [{"temperature_range": "-30 70 °C", "coefficient": "5.9e-06 K-1"}], "dPgF": -0.0074, "phosphate_resistance": 4.0}
Dispersion formula 3, range 0.365015 2.05809 um, coefficients 2.76405609 -0.0126400636 2 -0.000160322951 4 0.0184903089 -2 0.000267778201 -4 5.29803264e-06 -6 1.21335917e-07 -8
wavelength (um)	k
0.280	7.1722E-06
0.290	5.5569E-06
0.300	4.0938E-06
0.310	2.8892E-06
0.320	1.9226E-06
0.330	1.2553E-06
0.340	7.4253E-07
0.350	4.5265E-07
0.360	2.6703E-07
0.365	2.0143E-07
0.370	1.4793E-07
0.380	8.8991E-08
0.390	5.9534E-08
0.400	4.1652E-08
0.420	2.6846E-08
0.440	2.4596E-08
0.460	1.8349E-08
0.480	1.1476E-08
0.500	7.9657E-09
0.550	1.3150E-08
0.600	1.4345E-08
0.650	2.0732E-08
0.700	3.3523E-08
0.800	7.6856E-08
0.900	7.1656E-09
1.000	3.1895E-08
1.200	9.5541E-09
1.400	8.9485E-08
1.600	1.2796E-07
1.800	3.0401E-07
2.000	6.9952E-07
2.200	2.2380E-06
2.400	7.9358E-06
