Material: glass / hikari / Q-PSKH1S
Optical constants. NIKON Zemax catalog 2017-11 (obtained from http://www.nikon.com)See also HIKARI glass data sheets
Comments: For mold lens
Specs: {"n_absolute": false, "wavelength_vacuum": false, "temperature": "23.0 °C", "thermal_dispersion": [{"type": "Schott formula", "coefficients": "-1.5641e-05 2.5796e-09 -1.8124e-13 4.1275e-07 2.968e-10 0.19092"}], "nd": 1.59255, "Vd": 67.856871, "density": "4.1 g/cm3", "thermal_expansion": [{"temperature_range": "-30 70 °C", "coefficient": "1.14e-05 K-1"}], "dPgF": 0.0136, "phosphate_resistance": 3.0}
Dispersion formula 3, range 0.388865 2.05809 um, coefficients 2.50007622 -0.00671624527 2 -5.1444284e-05 4 0.0128098993 -2 0.000158900364 -4 6.45646017e-07 -6 1.36642151e-07 -8
wavelength (um)	k
0.300	8.3713E-06
0.310	5.6803E-06
0.320	3.6341E-06
0.330	2.2163E-06
0.340	1.2501E-06
0.350	6.9202E-07
0.360	3.6622E-07
0.365	2.7074E-07
0.370	1.9160E-07
0.380	1.0460E-07
0.390	6.9040E-08
0.400	4.8108E-08
0.420	3.6968E-08
0.440	3.8729E-08
0.460	3.3094E-08
0.480	3.0681E-08
0.500	2.7950E-08
0.550	1.7542E-08
0.600	2.8734E-08
0.650	3.6335E-08
0.700	4.4743E-08
0.800	7.0416E-08
0.900	5.0310E-08
1.000	6.3918E-08
1.200	9.5541E-09
1.400	3.3473E-08
1.600	6.3822E-08
1.800	1.7293E-07
2.000	1.5996E-07
2.200	1.9364E-07
2.400	2.4991E-07
