Material: glass / hikari / Q-PSKH2S
Optical constants. NIKON Zemax catalog 2017-11 (obtained from http://www.nikon.com)See also HIKARI glass data sheets
Comments: For mold lens
Specs: {"n_absolute": false, "wavelength_vacuum": false, "temperature": "23.0 °C", "thermal_dispersion": [{"type": "Schott formula", "coefficients": "-8.4418e-06 7.681e-09 -1.21e-12 4.5981e-07 5.1474e-10 0.17414"}], "nd": 1.61875, "Vd": 63.733391, "density": "3.52 g/cm3", "thermal_expansion": [{"temperature_range": "-30 70 °C", "coefficient": "9.3e-06 K-1"}], "dPgF": 0.0038, "phosphate_resistance": 4.0}
Dispersion formula 3, range 0.365015 2.05809 um, coefficients 2.58079919 -0.00946942822 2 -8.88975012e-05 4 0.0142435389 -2 0.000181224951 -4 1.94681195e-06 -6 8.51820873e-08 -8
wavelength (um)	k
0.280	1.0261E-05
0.290	6.4926E-06
0.300	4.2302E-06
0.310	2.7350E-06
0.320	1.7147E-06
0.330	1.0128E-06
0.340	5.7013E-07
0.350	3.2457E-07
0.360	1.8336E-07
0.365	1.3983E-07
0.370	1.0795E-07
0.380	6.7269E-08
0.390	5.3213E-08
0.400	5.1341E-08
0.420	6.4114E-08
0.440	6.7167E-08
0.460	5.5324E-08
0.480	4.6114E-08
0.500	3.9989E-08
0.550	3.0745E-08
0.600	4.7987E-08
0.650	5.1986E-08
0.700	5.0361E-08
0.800	7.0416E-08
0.900	2.1518E-08
1.000	3.9889E-08
1.200	2.8691E-08
1.400	4.4653E-08
1.600	1.7951E-07
1.800	4.8067E-07
2.000	9.0035E-07
2.200	2.2380E-06
2.400	3.5586E-06
