Material: glass / hikari / Q-SK52S
Optical constants. NIKON Zemax catalog 2017-11 (obtained from http://www.nikon.com)See also HIKARI glass data sheets
Comments: For mold lens
Specs: {"n_absolute": false, "wavelength_vacuum": false, "temperature": "23.0 °C", "thermal_dispersion": [{"type": "Schott formula", "coefficients": "5.0538e-06 1.23472e-08 1.77584e-12 4.97469e-07 5.44575e-10 0.195505"}], "nd": 1.58286, "Vd": 59.504606, "density": "2.8 g/cm3", "thermal_expansion": [{"temperature_range": "-30 70 °C", "coefficient": "6.2e-06 K-1"}], "dPgF": -0.0037, "phosphate_resistance": 3.0}
Dispersion formula 3, range 0.365015 2.05809 um, coefficients 2.46682919 -0.0100692159 2 -0.000110027728 4 0.0140726622 -2 0.000136654094 -4 8.57488472e-06 -6 -1.75474987e-07 -8
wavelength (um)	k
0.280	1.0261E-05
0.290	6.9134E-06
0.300	4.2302E-06
0.310	2.3869E-06
0.320	1.3008E-06
0.330	6.8636E-07
0.340	3.7679E-07
0.350	1.9913E-07
0.360	1.0801E-07
0.365	8.2488E-08
0.370	6.5499E-08
0.380	3.9569E-08
0.390	3.4328E-08
0.400	2.2360E-08
0.420	2.3478E-08
0.440	2.4596E-08
0.460	2.2030E-08
0.480	1.5310E-08
0.500	1.1955E-08
0.550	8.7623E-09
0.600	1.9137E-08
0.650	2.5928E-08
0.700	3.3523E-08
0.800	5.7555E-08
0.900	7.1656E-09
1.000	2.3909E-08
1.200	9.5541E-09
1.400	2.2304E-08
1.600	6.3822E-08
1.800	2.0195E-07
2.000	3.2154E-07
2.200	1.1579E-06
2.400	2.8805E-06
