Material: glass / hikari / SF1
Optical constants. NIKON Zemax catalog 2017-11 (obtained from http://www.nikon.com)See also HIKARI glass data sheets
Specs: {"n_absolute": false, "wavelength_vacuum": false, "temperature": "20.0 °C", "nd": 1.71736, "Vd": 29.486634, "glass_code": 717295, "glass_status": "preferred", "density": "4.47 g/cm3", "thermal_expansion": [{"temperature_range": "-30 70 °C", "coefficient": "9e-06 K-1"}], "dPgF": 0.0032}
Dispersion formula 3, range 0.4 0.7 um, coefficients 2.839803 -0.004469128 2 0.03464028 -2 0.001334322 -4 -5.451762e-05 -6 1.214724e-05 -8
wavelength (um)	k
0.340	1.2460E-05
0.350	4.7761E-06
0.360	2.1027E-06
0.370	1.1792E-06
0.380	7.1281E-07
0.390	4.6808E-07
0.400	3.1422E-07
0.420	1.4341E-07
0.440	6.3599E-08
0.460	2.2030E-08
0.480	3.8216E-09
0.500	3.9809E-09
0.550	4.3790E-09
0.600	4.7770E-09
0.650	5.1751E-09
0.700	5.5732E-09
