Material: glass / hikari / SF10
Optical constants. NIKON Zemax catalog 2017-11 (obtained from http://www.nikon.com)See also HIKARI glass data sheets
Specs: {"n_absolute": false, "wavelength_vacuum": false, "temperature": "20.0 °C", "nd": 1.72825, "Vd": 28.34699, "glass_code": 728283, "glass_status": "preferred", "density": "4.27 g/cm3", "thermal_expansion": [{"temperature_range": "-30 70 °C", "coefficient": "8.5e-06 K-1"}], "dPgF": 0.0083}
Dispersion formula 3, range 0.4 0.7 um, coefficients 2.842085 0.01641576 2 0.05206046 -2 -0.002610463 -4 0.000446977 -6 -9.429829e-06 -8
wavelength (um)	k
0.370	1.3559E-05
0.380	5.0220E-06
0.390	2.0897E-06
0.400	8.7356E-07
0.420	2.3537E-07
0.440	9.2241E-08
0.460	4.0489E-08
0.480	1.5310E-08
0.500	3.9809E-09
0.550	4.3790E-09
0.600	4.7770E-09
0.650	5.1751E-09
0.700	5.5732E-09
