Material: glass / hikari / SF11
Optical constants. NIKON Zemax catalog 2017-11 (obtained from http://www.nikon.com)See also HIKARI glass data sheets
Specs: {"n_absolute": false, "wavelength_vacuum": false, "temperature": "20.0 °C", "nd": 1.784721, "Vd": 25.833679, "glass_code": 785258, "glass_status": "preferred", "density": "4.81 g/cm3", "thermal_expansion": [{"temperature_range": "-30 70 °C", "coefficient": "8.4e-06 K-1"}], "dPgF": 0.0105}
Dispersion formula 3, range 0.4 0.7 um, coefficients 3.127487 -0.0637466 2 -0.0009890957 -2 0.01363913 -4 -0.001588824 -6 9.646333e-05 -8
wavelength (um)	k
0.380	6.6747E-06
0.390	2.6923E-06
0.400	1.2276E-06
0.420	3.5214E-07
0.440	1.5389E-07
0.460	8.8925E-08
0.480	5.3854E-08
0.500	3.1959E-08
0.550	1.3150E-08
0.600	1.4345E-08
0.650	1.5541E-08
0.700	5.5732E-09
