Material: glass / hikari / SF12
Optical constants. NIKON Zemax catalog 2017-11 (obtained from http://www.nikon.com)See also HIKARI glass data sheets
Specs: {"n_absolute": false, "wavelength_vacuum": false, "temperature": "20.0 °C", "nd": 1.648311, "Vd": 33.769773, "glass_code": 648338, "glass_status": "preferred", "density": "3.73 g/cm3", "thermal_expansion": [{"temperature_range": "-30 70 °C", "coefficient": "9.5e-06 K-1"}], "dPgF": 0.002}
Dispersion formula 3, range 0.4 0.7 um, coefficients 2.620359 0.002381459 2 0.03560544 -2 -0.001773085 -4 0.0003452771 -6 -1.282207e-05 -8
wavelength (um)	k
0.350	9.7665E-06
0.360	3.4491E-06
0.370	1.2684E-06
0.380	4.9145E-07
0.390	2.1523E-07
0.400	8.7125E-08
0.420	2.0114E-08
0.440	7.0098E-09
0.460	3.6624E-09
0.480	3.8216E-09
0.500	3.9809E-09
0.550	4.3790E-09
0.600	4.7770E-09
0.650	5.1751E-09
0.700	5.5732E-09
