Material: glass / hikari / SF13
Optical constants. NIKON Zemax catalog 2017-11 (obtained from http://www.nikon.com)See also HIKARI glass data sheets
Specs: {"n_absolute": false, "wavelength_vacuum": false, "temperature": "20.0 °C", "nd": 1.740771, "Vd": 27.644962, "glass_code": 741276, "glass_status": "preferred", "density": "4.37 g/cm3", "thermal_expansion": [{"temperature_range": "-30 70 °C", "coefficient": "8.1e-06 K-1"}], "dPgF": 0.0093}
Dispersion formula 3, range 0.4 0.7 um, coefficients 2.92263 -0.01150018 2 0.02875835 -2 0.004472855 -4 -0.0004973006 -6 4.089372e-05 -8
wavelength (um)	k
0.380	7.2815E-06
0.390	2.7671E-06
0.400	1.1811E-06
0.420	2.5335E-07
0.440	7.4313E-08
0.460	2.5714E-08
0.480	3.8216E-09
0.500	3.9809E-09
0.550	4.3790E-09
0.600	4.7770E-09
0.650	5.1751E-09
0.700	5.5732E-09
