Material: glass / hikari / SF14
Optical constants. NIKON Zemax catalog 2017-11 (obtained from http://www.nikon.com)See also HIKARI glass data sheets
Specs: {"n_absolute": false, "wavelength_vacuum": false, "temperature": "20.0 °C", "nd": 1.76182, "Vd": 26.556302, "glass_code": 762266, "glass_status": "preferred", "density": "4.57 g/cm3", "thermal_expansion": [{"temperature_range": "-30 70 °C", "coefficient": "7.5e-06 K-1"}], "dPgF": 0.0122}
Dispersion formula 3, range 0.4 0.7 um, coefficients 2.983846 -0.01289956 2 0.03563966 -2 0.002969076 -4 -0.000222699 -6 2.674236e-05 -8
wavelength (um)	k
0.380	9.0589E-06
0.390	3.6348E-06
0.400	1.5734E-06
0.420	4.2725E-07
0.440	1.7224E-07
0.460	8.8925E-08
0.480	4.6114E-08
0.500	1.1955E-08
0.550	4.3790E-09
0.600	4.7770E-09
0.650	1.0355E-08
0.700	5.5705E-11
