Material: glass / hikari / SF15
Optical constants. NIKON Zemax catalog 2017-11 (obtained from http://www.nikon.com)See also HIKARI glass data sheets
Specs: {"n_absolute": false, "wavelength_vacuum": false, "temperature": "20.0 °C", "nd": 1.69895, "Vd": 30.089686, "glass_code": 699301, "glass_status": "preferred", "density": "4.12 g/cm3", "thermal_expansion": [{"temperature_range": "-30 70 °C", "coefficient": "1e-05 K-1"}], "dPgF": 0.0058}
Dispersion formula 3, range 0.4 0.7 um, coefficients 2.787118 -0.006950628 2 0.03016016 -2 0.00207609 -4 -0.0001855962 -6 2.047325e-05 -8
wavelength (um)	k
0.360	1.3193E-05
0.370	5.0490E-06
0.380	2.0362E-06
0.390	9.3449E-07
0.400	4.8008E-07
0.420	1.7848E-07
0.440	8.8648E-08
0.460	5.9043E-08
0.480	3.4533E-08
0.500	1.5947E-08
0.550	4.3790E-09
0.600	4.7770E-09
0.650	5.1751E-09
0.700	5.5732E-09
