Material: glass / hikari / SF5
Optical constants. NIKON Zemax catalog 2017-11 (obtained from http://www.nikon.com)See also HIKARI glass data sheets
Specs: {"n_absolute": false, "wavelength_vacuum": false, "temperature": "20.0 °C", "nd": 1.6727, "Vd": 32.154391, "glass_code": 673322, "glass_status": "preferred", "density": "4.09 g/cm3", "thermal_expansion": [{"temperature_range": "-30 70 °C", "coefficient": "8.8e-06 K-1"}], "dPgF": 0.0013}
Dispersion formula 3, range 0.4 0.7 um, coefficients 2.735991 -0.0272415 2 0.01394696 -2 0.004883728 -4 -0.0004997414 -6 2.996089e-05 -8
wavelength (um)	k
0.340	5.1329E-06
0.350	1.8213E-06
0.360	7.8620E-07
0.370	4.4408E-07
0.380	2.7524E-07
0.390	1.7557E-07
0.400	1.1671E-07
0.420	6.4114E-08
0.440	3.8729E-08
0.460	2.2030E-08
0.480	1.1476E-08
0.500	3.9809E-09
0.550	4.3790E-09
0.600	4.7770E-09
0.650	5.1751E-09
0.700	5.5732E-09
