Material: glass / hikari / SF6
Optical constants. NIKON Zemax catalog 2017-11 (obtained from http://www.nikon.com)See also HIKARI glass data sheets
Specs: {"n_absolute": false, "wavelength_vacuum": false, "temperature": "20.0 °C", "nd": 1.805182, "Vd": 25.443058, "glass_code": 805254, "glass_status": "preferred", "density": "5.18 g/cm3", "thermal_expansion": [{"temperature_range": "-30 70 °C", "coefficient": "9e-06 K-1"}], "dPgF": 0.0085}
Dispersion formula 3, range 0.4 0.7 um, coefficients 3.080799 0.01530035 2 0.06350134 -2 -0.002963535 -4 0.0006026374 -6 -1.590891e-05 -8
wavelength (um)	k
0.360	6.3234E-06
0.370	2.6252E-06
0.380	1.3495E-06
0.390	8.1115E-07
0.400	5.1731E-07
0.420	2.4615E-07
0.440	1.3201E-07
0.460	7.3953E-08
0.480	4.2250E-08
0.500	2.3945E-08
0.550	4.3790E-09
0.600	9.5589E-09
0.650	1.0355E-08
0.700	5.5732E-09
