Material: glass / hikari / SF7
Optical constants. NIKON Zemax catalog 2017-11 (obtained from http://www.nikon.com)See also HIKARI glass data sheets
Specs: {"n_absolute": false, "wavelength_vacuum": false, "temperature": "20.0 °C", "nd": 1.6398, "Vd": 34.563664, "glass_code": 640346, "glass_status": "preferred", "density": "3.78 g/cm3", "thermal_expansion": [{"temperature_range": "-30 70 °C", "coefficient": "9.9e-06 K-1"}], "dPgF": 0.0022}
Dispersion formula 3, range 0.4 0.7 um, coefficients 2.602245 -0.002282728 2 0.0313239 -2 -0.001109815 -4 0.0002844724 -6 -1.205447e-05 -8
wavelength (um)	k
0.330	5.7964E-06
0.340	1.7693E-06
0.350	6.2150E-07
0.360	2.5135E-07
0.370	1.3249E-07
0.380	8.5878E-08
0.390	4.6905E-08
0.400	2.8778E-08
0.420	2.0114E-08
0.440	1.4034E-08
0.460	1.0998E-08
0.480	1.1476E-08
0.500	1.1955E-08
0.550	1.3150E-08
0.600	9.5589E-09
0.650	5.1751E-09
0.700	5.5707E-10
