Material: glass / hikari / SF8
Optical constants. NIKON Zemax catalog 2017-11 (obtained from http://www.nikon.com)See also HIKARI glass data sheets
Specs: {"n_absolute": false, "wavelength_vacuum": false, "temperature": "20.0 °C", "nd": 1.68893, "Vd": 31.144745, "glass_code": 689311, "glass_status": "preferred", "density": "4.22 g/cm3", "thermal_expansion": [{"temperature_range": "-30 70 °C", "coefficient": "9.3e-06 K-1"}], "dPgF": 0.0015}
Dispersion formula 3, range 0.4 0.7 um, coefficients 2.798858 -0.03718093 2 0.007630191 -2 0.007231691 -4 -0.0008073847 -6 4.696667e-05 -8
wavelength (um)	k
0.340	6.8337E-06
0.350	2.3506E-06
0.360	9.4109E-07
0.370	4.7852E-07
0.380	2.8187E-07
0.390	1.7228E-07
0.400	1.1340E-07
0.420	6.0709E-08
0.440	4.2271E-08
0.460	2.9402E-08
0.480	1.5310E-08
0.500	7.9657E-09
0.550	4.3790E-09
0.600	4.7770E-09
0.650	1.0355E-08
0.700	-0.0000E+00
