Material: glass / hikari / SF9
Optical constants. NIKON Zemax catalog 2017-11 (obtained from http://www.nikon.com)See also HIKARI glass data sheets
Specs: {"n_absolute": false, "wavelength_vacuum": false, "temperature": "20.0 °C", "nd": 1.65446, "Vd": 33.855439, "glass_code": 654339, "glass_status": "preferred", "density": "3.93 g/cm3", "thermal_expansion": [{"temperature_range": "-30 70 °C", "coefficient": "8.8e-06 K-1"}], "dPgF": 0.0001}
Dispersion formula 3, range 0.4 0.7 um, coefficients 2.661342 -0.01187903 2 0.02328061 -2 0.001777729 -4 -0.0001298549 -6 1.138748e-05 -8
wavelength (um)	k
0.340	4.6396E-06
0.350	1.6149E-06
0.360	7.1179E-07
0.370	3.7639E-07
0.380	2.2596E-07
0.390	1.4290E-07
0.400	9.3675E-08
0.420	4.3734E-08
0.440	2.4596E-08
0.460	1.0998E-08
0.480	3.8216E-09
0.500	3.9809E-09
0.550	4.3790E-09
0.600	4.7770E-09
0.650	5.1751E-09
0.700	5.5705E-11
