Material: glass / hikari / SFS3
Optical constants. NIKON Zemax catalog 2017-11 (obtained from http://www.nikon.com)See also HIKARI glass data sheets
Specs: {"n_absolute": false, "wavelength_vacuum": false, "temperature": "20.0 °C", "nd": 1.7847, "Vd": 26.207574, "glass_code": 785262, "glass_status": "preferred", "density": "5.02 g/cm3", "thermal_expansion": [{"temperature_range": "-30 70 °C", "coefficient": "9e-06 K-1"}], "dPgF": 0.0077}
Dispersion formula 3, range 0.4 0.7 um, coefficients 3.071402 -0.02168875 2 0.02943887 -2 0.005498532 -4 -0.0005380916 -6 4.131754e-05 -8
wavelength (um)	k
0.360	5.8448E-06
0.370	2.8489E-06
0.380	1.6998E-06
0.390	1.1069E-06
0.400	7.1029E-07
0.420	3.2256E-07
0.440	1.5755E-07
0.460	7.7690E-08
0.480	3.8389E-08
0.500	1.9944E-08
0.550	4.3790E-09
0.600	4.7770E-09
0.650	5.1751E-09
0.700	5.5707E-10
