Material: glass / hikari / SK15
Optical constants. NIKON Zemax catalog 2017-11 (obtained from http://www.nikon.com)See also HIKARI glass data sheets
Specs: {"n_absolute": false, "wavelength_vacuum": false, "temperature": "20.0 °C", "nd": 1.62299, "Vd": 58.225167, "glass_code": 623582, "glass_status": "preferred", "density": "3.66 g/cm3", "thermal_expansion": [{"temperature_range": "-30 70 °C", "coefficient": "8.1e-06 K-1"}], "dPgF": -0.0018}
Dispersion formula 3, range 0.4 0.7 um, coefficients 2.595129 -0.01330175 2 0.01295053 -2 0.000946977 -4 -9.281618e-05 -6 5.074742e-06 -8
wavelength (um)	k
0.290	1.0628E-05
0.300	6.0297E-06
0.310	3.4199E-06
0.320	1.9774E-06
0.330	1.1313E-06
0.340	6.3778E-07
0.350	3.5604E-07
0.360	2.3265E-07
0.370	1.3557E-07
0.380	8.5878E-08
0.390	5.6372E-08
0.400	3.5208E-08
0.420	2.0114E-08
0.440	1.4034E-08
0.460	3.6624E-09
0.480	3.8216E-09
0.500	3.9809E-09
0.550	4.3790E-09
0.600	4.7770E-09
0.650	5.1751E-09
0.700	-0.0000E+00
