Material: glass / hikari / SK16
Optical constants. NIKON Zemax catalog 2017-11 (obtained from http://www.nikon.com)See also HIKARI glass data sheets
Specs: {"n_absolute": false, "wavelength_vacuum": false, "temperature": "20.0 °C", "nd": 1.620409, "Vd": 60.280874, "glass_code": 620603, "glass_status": "preferred", "density": "3.6 g/cm3", "thermal_expansion": [{"temperature_range": "-30 70 °C", "coefficient": "7.7e-06 K-1"}], "dPgF": -0.002}
Dispersion formula 3, range 0.4 0.7 um, coefficients 2.592001 -0.01540969 2 0.0102268 -2 0.001581559 -4 -0.0001877149 -6 1.012515e-05 -8
wavelength (um)	k
0.290	8.0922E-06
0.300	5.0618E-06
0.310	2.9701E-06
0.320	1.7651E-06
0.330	1.0517E-06
0.340	6.3778E-07
0.350	3.5604E-07
0.360	2.4199E-07
0.370	1.5103E-07
0.380	9.8348E-08
0.390	6.9040E-08
0.400	5.1341E-08
0.420	3.3591E-08
0.440	2.4596E-08
0.460	1.8349E-08
0.480	1.1476E-08
0.500	3.9809E-09
0.550	4.3790E-09
0.600	4.7770E-09
0.650	5.1751E-09
0.700	-0.0000E+00
