Material: glass / hikari / SK18
Optical constants. NIKON Zemax catalog 2017-11 (obtained from http://www.nikon.com)See also HIKARI glass data sheets
Specs: {"n_absolute": false, "wavelength_vacuum": false, "temperature": "20.0 °C", "nd": 1.63854, "Vd": 55.479588, "glass_code": 639555, "glass_status": "preferred", "density": "3.69 g/cm3", "thermal_expansion": [{"temperature_range": "-30 70 °C", "coefficient": "8.1e-06 K-1"}], "dPgF": -0.0021}
Dispersion formula 3, range 0.4 0.7 um, coefficients 2.652537 -0.02070769 2 0.008235652 -2 0.0025989 -4 -0.0003027232 -6 1.591967e-05 -8
wavelength (um)	k
0.330	1.2093E-05
0.340	5.3196E-06
0.350	2.4162E-06
0.360	1.2341E-06
0.370	6.5702E-07
0.380	3.8656E-07
0.390	2.2856E-07
0.400	1.4656E-07
0.420	8.8048E-08
0.440	7.4313E-08
0.460	6.2765E-08
0.480	4.6114E-08
0.500	3.1959E-08
0.550	8.7623E-09
0.600	1.4345E-08
0.650	1.0355E-08
0.700	-0.0000E+00
