Material: glass / hikari / SK2
Optical constants. NIKON Zemax catalog 2017-11 (obtained from http://www.nikon.com)See also HIKARI glass data sheets
Specs: {"n_absolute": false, "wavelength_vacuum": false, "temperature": "20.0 °C", "nd": 1.60738, "Vd": 56.746975, "glass_code": 607567, "glass_status": "preferred", "density": "3.47 g/cm3", "thermal_expansion": [{"temperature_range": "-30 70 °C", "coefficient": "6.7e-06 K-1"}], "dPgF": -0.0017}
Dispersion formula 3, range 0.4 0.7 um, coefficients 2.54233 -0.01001372 2 0.01366271 -2 0.0008285866 -4 -8.590268e-05 -6 5.079496e-06 -8
wavelength (um)	k
0.290	-0.0000E+00
0.300	-0.0000E+00
0.310	-0.0000E+00
0.320	-0.0000E+00
0.330	-0.0000E+00
0.340	-0.0000E+00
0.350	-0.0000E+00
0.360	-0.0000E+00
0.370	-0.0000E+00
0.380	-0.0000E+00
0.390	-0.0000E+00
0.400	-0.0000E+00
0.420	-0.0000E+00
0.440	-0.0000E+00
0.460	-0.0000E+00
0.480	-0.0000E+00
0.500	-0.0000E+00
0.550	-0.0000E+00
0.600	-0.0000E+00
0.650	-0.0000E+00
0.700	-3.7457E-06
