Material: glass / hikari / SK9
Optical constants. NIKON Zemax catalog 2017-11 (obtained from http://www.nikon.com)See also HIKARI glass data sheets
Specs: {"n_absolute": false, "wavelength_vacuum": false, "temperature": "20.0 °C", "nd": 1.61405, "Vd": 55.0612, "glass_code": 614551, "glass_status": "preferred", "density": "3.57 g/cm3", "thermal_expansion": [{"temperature_range": "-30 70 °C", "coefficient": "7.3e-06 K-1"}], "dPgF": -0.0015}
Dispersion formula 3, range 0.4 0.7 um, coefficients 2.564248 -0.01337038 2 0.01398205 -2 0.0007030773 -4 -4.206054e-05 -6 2.098576e-06 -8
wavelength (um)	k
0.330	2.7569E-06
0.340	1.2075E-06
0.350	5.1897E-07
0.360	2.5762E-07
0.370	1.3249E-07
0.380	8.5878E-08
0.390	5.3213E-08
0.400	3.5208E-08
0.420	2.6846E-08
0.440	2.4596E-08
0.460	1.8349E-08
0.480	1.9146E-08
0.500	1.5947E-08
0.550	1.3150E-08
0.600	1.4345E-08
0.650	1.0355E-08
0.700	5.5705E-11
