Material: glass / hikari / SSK2
Optical constants. NIKON Zemax catalog 2017-11 (obtained from http://www.nikon.com)See also HIKARI glass data sheets
Specs: {"n_absolute": false, "wavelength_vacuum": false, "temperature": "20.0 °C", "nd": 1.6223, "Vd": 53.057571, "glass_code": 622531, "glass_status": "preferred", "density": "3.63 g/cm3", "thermal_expansion": [{"temperature_range": "-30 70 °C", "coefficient": "7e-06 K-1"}], "dPgF": -0.0019}
Dispersion formula 3, range 0.4 0.7 um, coefficients 2.591243 -0.01427206 2 0.01239656 -2 0.00153774 -4 -0.0001592745 -6 8.552111e-06 -8
wavelength (um)	k
0.320	8.9294E-06
0.330	3.4384E-06
0.340	1.3821E-06
0.350	6.2150E-07
0.360	3.0184E-07
0.370	1.6656E-07
0.380	9.2107E-08
0.390	5.6372E-08
0.400	3.1991E-08
0.420	2.0114E-08
0.440	2.1072E-08
0.460	1.4672E-08
0.480	3.8216E-09
0.500	3.9809E-09
0.550	4.3790E-09
0.600	4.7770E-09
0.650	5.1751E-09
0.700	5.5732E-09
