Material: organic / CH4O - methanol / Myers
Optical constants. T. L. Myers, R. G. Tonkyn, T. O. Danby, M. S. Taubman, B. E. Bernacki, J. C. Birnbaum, S. W. Sharpe, T. J. Johnson. Accurate measurement of the optical constants n and k for a series of 57 inorganic and organic liquids for optical modeling and detection, Appl. Spectrosc. 72, 535-550 (2018) (see Supplemental Material for numerical data)
Comments: 26 Â°C
Specs: {"n_absolute": true, "wavelength_vacuum": true, "temperature": "26 Â°C"}
wavelength (um)	n	k
1.28244E+00	1.31299E+00	2.83943E-05
1.28554E+00	1.31300E+00	2.81028E-05
1.28866E+00	1.31299E+00	2.75430E-05
1.29179E+00	1.31298E+00	2.67569E-05
1.29493E+00	1.31297E+00	2.57948E-05
1.29809E+00	1.31295E+00	2.61701E-05
1.30127E+00	1.31294E+00	2.70165E-05
1.30446E+00	1.31292E+00	2.76938E-05
1.30767E+00	1.31291E+00	2.80760E-05
1.31089E+00	1.31289E+00	2.80540E-05
1.31413E+00	1.31288E+00	2.79923E-05
1.31739E+00	1.31286E+00	2.78177E-05
1.32066E+00	1.31284E+00	2.75573E-05
1.32395E+00	1.31283E+00	2.72654E-05
1.32725E+00	1.31281E+00	2.71657E-05
1.33057E+00	1.31279E+00	2.71951E-05
1.33391E+00	1.31277E+00	2.71183E-05
1.33726E+00	1.31276E+00	2.73362E-05
1.34063E+00	1.31274E+00	2.77474E-05
1.34402E+00	1.31272E+00	2.83739E-05
1.34743E+00	1.31270E+00	2.96064E-05
1.35085E+00	1.31268E+00	3.11947E-05
1.35429E+00	1.31266E+00	3.24726E-05
1.35775E+00	1.31265E+00	3.30783E-05
1.36122E+00	1.31263E+00	3.35832E-05
1.36471E+00	1.31261E+00	3.44207E-05
1.36823E+00	1.31259E+00	3.53929E-05
1.37176E+00	1.31257E+00	3.60722E-05
1.37530E+00	1.31255E+00	3.63598E-05
1.37887E+00	1.31253E+00	3.65674E-05
1.38245E+00	1.31251E+00	3.63085E-05
1.38606E+00	1.31249E+00	3.63129E-05
1.38968E+00	1.31246E+00	3.71317E-05
1.39332E+00	1.31244E+00	3.94983E-05
1.39698E+00	1.31242E+00	4.34001E-05
1.40066E+00	1.31240E+00	4.78105E-05
1.40436E+00	1.31238E+00	5.15630E-05
1.40807E+00	1.31236E+00	5.38936E-05
1.41181E+00	1.31234E+00	5.51895E-05
1.41557E+00	1.31232E+00	5.60237E-05
1.41935E+00	1.31230E+00	5.73240E-05
1.42315E+00	1.31227E+00	5.92397E-05
1.42697E+00	1.31225E+00	6.15726E-05
1.43080E+00	1.31223E+00	6.41223E-05
1.43466E+00	1.31220E+00	6.65058E-05
1.43854E+00	1.31218E+00	6.87753E-05
1.44245E+00	1.31216E+00	7.11399E-05
1.44637E+00	1.31214E+00	7.40947E-05
1.45031E+00	1.31211E+00	7.78236E-05
1.45428E+00	1.31209E+00	8.20976E-05
1.45827E+00	1.31207E+00	8.59218E-05
1.46228E+00	1.31205E+00	8.82704E-05
1.46631E+00	1.31202E+00	9.03579E-05
1.47036E+00	1.31200E+00	9.23941E-05
1.47444E+00	1.31198E+00	9.41238E-05
1.47854E+00	1.31195E+00	9.60040E-05
1.48266E+00	1.31193E+00	9.80005E-05
1.48681E+00	1.31191E+00	9.97142E-05
1.49097E+00	1.31188E+00	1.01209E-04
1.49517E+00	1.31186E+00	1.02508E-04
1.49938E+00	1.31183E+00	1.03801E-04
1.50362E+00	1.31181E+00	1.05177E-04
1.50788E+00	1.31178E+00	1.06548E-04
1.51217E+00	1.31176E+00	1.07466E-04
1.51648E+00	1.31173E+00	1.08085E-04
1.52082E+00	1.31170E+00	1.08907E-04
1.52518E+00	1.31168E+00	1.09815E-04
1.52957E+00	1.31165E+00	1.10963E-04
1.53398E+00	1.31162E+00	1.12223E-04
1.53842E+00	1.31159E+00	1.13831E-04
1.54288E+00	1.31156E+00	1.15792E-04
1.54737E+00	1.31153E+00	1.17820E-04
1.55189E+00	1.31150E+00	1.19985E-04
1.55643E+00	1.31148E+00	1.22214E-04
1.56100E+00	1.31145E+00	1.24274E-04
1.56559E+00	1.31142E+00	1.26199E-04
1.57021E+00	1.31139E+00	1.27776E-04
1.57486E+00	1.31136E+00	1.28867E-04
1.57954E+00	1.31134E+00	1.29339E-04
1.58425E+00	1.31131E+00	1.28974E-04
1.58898E+00	1.31128E+00	1.27617E-04
1.59374E+00	1.31125E+00	1.25231E-04
1.59853E+00	1.31122E+00	1.21648E-04
1.60335E+00	1.31119E+00	1.17368E-04
1.60820E+00	1.31115E+00	1.12570E-04
1.61308E+00	1.31112E+00	1.07414E-04
1.61798E+00	1.31108E+00	1.02078E-04
1.62292E+00	1.31105E+00	9.67602E-05
1.62789E+00	1.31101E+00	9.17131E-05
1.63289E+00	1.31097E+00	8.71456E-05
1.63792E+00	1.31093E+00	8.32102E-05
1.64298E+00	1.31088E+00	7.99919E-05
1.64807E+00	1.31084E+00	7.78099E-05
1.65319E+00	1.31079E+00	7.66912E-05
1.65835E+00	1.31075E+00	7.68112E-05
1.66353E+00	1.31070E+00	7.80090E-05
1.66875E+00	1.31065E+00	8.06285E-05
1.67401E+00	1.31060E+00	8.62696E-05
1.67929E+00	1.31055E+00	9.69532E-05
1.68461E+00	1.31051E+00	1.09324E-04
1.68997E+00	1.31047E+00	1.17922E-04
1.69535E+00	1.31044E+00	1.27556E-04
1.70077E+00	1.31041E+00	1.31145E-04
1.70623E+00	1.31037E+00	1.25658E-04
1.71172E+00	1.31033E+00	1.20594E-04
1.71725E+00	1.31029E+00	1.16333E-04
1.72281E+00	1.31024E+00	1.14017E-04
1.72841E+00	1.31020E+00	1.12251E-04
1.73405E+00	1.31015E+00	1.07274E-04
1.73972E+00	1.31011E+00	9.88385E-05
1.74543E+00	1.31006E+00	8.98253E-05
1.75118E+00	1.31000E+00	8.32457E-05
1.75696E+00	1.30995E+00	7.86571E-05
1.76279E+00	1.30989E+00	7.41214E-05
1.76865E+00	1.30984E+00	6.80440E-05
1.77455E+00	1.30978E+00	6.16136E-05
1.78049E+00	1.30972E+00	5.72787E-05
1.78647E+00	1.30966E+00	5.39928E-05
1.79249E+00	1.30959E+00	5.12598E-05
1.79856E+00	1.30953E+00	4.84574E-05
1.80466E+00	1.30946E+00	4.70910E-05
1.81080E+00	1.30940E+00	4.60602E-05
1.81699E+00	1.30933E+00	4.40883E-05
1.82322E+00	1.30927E+00	4.22945E-05
1.82949E+00	1.30920E+00	4.06431E-05
1.83581E+00	1.30913E+00	3.92842E-05
1.84217E+00	1.30906E+00	3.80292E-05
1.84857E+00	1.30899E+00	3.66512E-05
1.85502E+00	1.30891E+00	3.44763E-05
1.86151E+00	1.30884E+00	3.38168E-05
1.86805E+00	1.30876E+00	3.21665E-05
1.87463E+00	1.30868E+00	2.96776E-05
1.88127E+00	1.30860E+00	2.76949E-05
1.88794E+00	1.30852E+00	2.75430E-05
1.89467E+00	1.30844E+00	2.94854E-05
1.90144E+00	1.30835E+00	3.29389E-05
1.90827E+00	1.30827E+00	3.26544E-05
1.91514E+00	1.30818E+00	3.31434E-05
1.92206E+00	1.30809E+00	3.38599E-05
1.92903E+00	1.30800E+00	3.24545E-05
1.93606E+00	1.30790E+00	3.17441E-05
1.94313E+00	1.30780E+00	3.36829E-05
1.95025E+00	1.30770E+00	3.91825E-05
1.95743E+00	1.30761E+00	4.43126E-05
1.96466E+00	1.30750E+00	4.67020E-05
1.97195E+00	1.30740E+00	5.07143E-05
1.97929E+00	1.30729E+00	5.73053E-05
1.98668E+00	1.30718E+00	6.55284E-05
1.99413E+00	1.30706E+00	7.50926E-05
2.00164E+00	1.30694E+00	8.79241E-05
2.00920E+00	1.30683E+00	1.02007E-04
2.01682E+00	1.30670E+00	1.19967E-04
2.02450E+00	1.30658E+00	1.46156E-04
2.03223E+00	1.30647E+00	1.77026E-04
2.04003E+00	1.30636E+00	2.07233E-04
2.04788E+00	1.30625E+00	2.36596E-04
2.05580E+00	1.30615E+00	2.60530E-04
2.06378E+00	1.30605E+00	2.73956E-04
2.07182E+00	1.30595E+00	2.79268E-04
2.07992E+00	1.30585E+00	2.75214E-04
2.08809E+00	1.30574E+00	2.62421E-04
2.09632E+00	1.30561E+00	2.45388E-04
2.10461E+00	1.30547E+00	2.28326E-04
2.11298E+00	1.30533E+00	2.12032E-04
2.12140E+00	1.30517E+00	1.97396E-04
2.12990E+00	1.30501E+00	1.85911E-04
2.13846E+00	1.30484E+00	1.77124E-04
2.14710E+00	1.30466E+00	1.70072E-04
2.15580E+00	1.30448E+00	1.66144E-04
2.16458E+00	1.30428E+00	1.65929E-04
2.17342E+00	1.30408E+00	1.68321E-04
2.18234E+00	1.30387E+00	1.74101E-04
2.19133E+00	1.30365E+00	1.85312E-04
2.20040E+00	1.30342E+00	2.02706E-04
2.20954E+00	1.30317E+00	2.28601E-04
2.21876E+00	1.30291E+00	2.72986E-04
2.22806E+00	1.30264E+00	3.38723E-04
2.23743E+00	1.30235E+00	4.53998E-04
2.24688E+00	1.30209E+00	6.28983E-04
2.25642E+00	1.30189E+00	8.69398E-04
2.26603E+00	1.30184E+00	1.11636E-03
2.27573E+00	1.30192E+00	1.25207E-03
2.28551E+00	1.30204E+00	1.14279E-03
2.29537E+00	1.30194E+00	8.74758E-04
2.30532E+00	1.30166E+00	6.54686E-04
2.31536E+00	1.30130E+00	5.37887E-04
2.32548E+00	1.30094E+00	5.01644E-04
2.33570E+00	1.30062E+00	5.39571E-04
2.34600E+00	1.30037E+00	5.16073E-04
2.35639E+00	1.30008E+00	4.56689E-04
2.36688E+00	1.29973E+00	3.22777E-04
2.37746E+00	1.29928E+00	2.73708E-04
2.38814E+00	1.29884E+00	2.59916E-04
2.39891E+00	1.29839E+00	2.72916E-04
2.40978E+00	1.29793E+00	2.97519E-04
2.42075E+00	1.29745E+00	3.62071E-04
2.43182E+00	1.29700E+00	4.49123E-04
2.44299E+00	1.29657E+00	4.99831E-04
2.45426E+00	1.29609E+00	5.26166E-04
2.46564E+00	1.29558E+00	5.87054E-04
2.47713E+00	1.29505E+00	6.50254E-04
2.48872E+00	1.29456E+00	7.72048E-04
2.50042E+00	1.29405E+00	7.96201E-04
2.51223E+00	1.29356E+00	8.87044E-04
2.52416E+00	1.29311E+00	7.96098E-04
2.53619E+00	1.29246E+00	6.66875E-04
2.54835E+00	1.29175E+00	4.98776E-04
2.56062E+00	1.29085E+00	3.76344E-04
2.57300E+00	1.28985E+00	3.40995E-04
2.58551E+00	1.28885E+00	4.86967E-04
2.59814E+00	1.28808E+00	4.27464E-04
2.61090E+00	1.28689E+00	2.69326E-04
2.62378E+00	1.28558E+00	2.39993E-04
2.63679E+00	1.28420E+00	2.67971E-04
2.64993E+00	1.28269E+00	3.11151E-04
2.66320E+00	1.28106E+00	3.84462E-04
2.67660E+00	1.27925E+00	4.63077E-04
2.69014E+00	1.27723E+00	5.53187E-04
2.70382E+00	1.27489E+00	6.61308E-04
2.71764E+00	1.27216E+00	8.42067E-04
2.73159E+00	1.26885E+00	1.17351E-03
2.74570E+00	1.26488E+00	2.07274E-03
2.75995E+00	1.26052E+00	3.64473E-03
2.77434E+00	1.25578E+00	5.96171E-03
2.78889E+00	1.25067E+00	9.22919E-03
2.80359E+00	1.24535E+00	1.37350E-02
2.81845E+00	1.24012E+00	1.97883E-02
2.83347E+00	1.23556E+00	2.74488E-02
2.84865E+00	1.23202E+00	3.64362E-02
2.86399E+00	1.22964E+00	4.68388E-02
2.87949E+00	1.22922E+00	5.85644E-02
2.89517E+00	1.23109E+00	7.08333E-02
2.91102E+00	1.23502E+00	8.30717E-02
2.92704E+00	1.24093E+00	9.59303E-02
2.94324E+00	1.25016E+00	1.09092E-01
2.95962E+00	1.26403E+00	1.20800E-01
2.97618E+00	1.28152E+00	1.28321E-01
2.99293E+00	1.30052E+00	1.30456E-01
3.00987E+00	1.31847E+00	1.27621E-01
3.02700E+00	1.33395E+00	1.20904E-01
3.04433E+00	1.34690E+00	1.11846E-01
3.06185E+00	1.35688E+00	1.01040E-01
3.07958E+00	1.36399E+00	8.91981E-02
3.09752E+00	1.36801E+00	7.71044E-02
3.11567E+00	1.36923E+00	6.54931E-02
3.13403E+00	1.36812E+00	5.50862E-02
3.15261E+00	1.36534E+00	4.61989E-02
3.17141E+00	1.36143E+00	3.88519E-02
3.19043E+00	1.35675E+00	3.29873E-02
3.20969E+00	1.35159E+00	2.84493E-02
3.22918E+00	1.34603E+00	2.51621E-02
3.24891E+00	1.34006E+00	2.31629E-02
3.26888E+00	1.33380E+00	2.25573E-02
3.28909E+00	1.32718E+00	2.33207E-02
3.30956E+00	1.31938E+00	2.60493E-02
3.33028E+00	1.31015E+00	3.48217E-02
3.35127E+00	1.31186E+00	5.12015E-02
3.37252E+00	1.31440E+00	5.86439E-02
3.39405E+00	1.33094E+00	8.20606E-02
3.41585E+00	1.35391E+00	6.64565E-02
3.43793E+00	1.36422E+00	5.68041E-02
3.46030E+00	1.36239E+00	4.11600E-02
3.48296E+00	1.35447E+00	3.46078E-02
3.50592E+00	1.34227E+00	3.69869E-02
3.52919E+00	1.35423E+00	7.40356E-02
3.55276E+00	1.38325E+00	4.06952E-02
3.57666E+00	1.37744E+00	2.53532E-02
3.60087E+00	1.37237E+00	1.69828E-02
3.62542E+00	1.36705E+00	1.13170E-02
3.65030E+00	1.36192E+00	7.80995E-03
3.67553E+00	1.35735E+00	5.78284E-03
3.70111E+00	1.35345E+00	4.70795E-03
3.72705E+00	1.35016E+00	4.17171E-03
3.75335E+00	1.34731E+00	4.01748E-03
3.78003E+00	1.34480E+00	4.22177E-03
3.80709E+00	1.34267E+00	4.90676E-03
3.83454E+00	1.34157E+00	5.99491E-03
3.86239E+00	1.34124E+00	6.21196E-03
3.89065E+00	1.34033E+00	5.96618E-03
3.91932E+00	1.33937E+00	6.33615E-03
3.94842E+00	1.33913E+00	6.99645E-03
3.97795E+00	1.33977E+00	7.04956E-03
4.00793E+00	1.34028E+00	5.87898E-03
4.03836E+00	1.33972E+00	4.36450E-03
4.06926E+00	1.33861E+00	3.41504E-03
4.10064E+00	1.33768E+00	2.86393E-03
4.13251E+00	1.33686E+00	2.19026E-03
4.16487E+00	1.33578E+00	1.51713E-03
4.19774E+00	1.33457E+00	1.08193E-03
4.23114E+00	1.33338E+00	8.90478E-04
4.26507E+00	1.33229E+00	8.61146E-04
4.29955E+00	1.33132E+00	8.94050E-04
4.33460E+00	1.33039E+00	1.00769E-03
4.37022E+00	1.32954E+00	1.21529E-03
4.40643E+00	1.32880E+00	1.52797E-03
4.44324E+00	1.32827E+00	1.93923E-03
4.48068E+00	1.32811E+00	2.24832E-03
4.51875E+00	1.32805E+00	2.08370E-03
4.55747E+00	1.32762E+00	1.67871E-03
4.59687E+00	1.32698E+00	1.41404E-03
4.63695E+00	1.32622E+00	1.24551E-03
4.67773E+00	1.32546E+00	1.24931E-03
4.71924E+00	1.32473E+00	1.27262E-03
4.76149E+00	1.32387E+00	1.37645E-03
4.80451E+00	1.32286E+00	1.87616E-03
4.84831E+00	1.32226E+00	3.14674E-03
4.89292E+00	1.32371E+00	4.47647E-03
4.93835E+00	1.32484E+00	2.62323E-03
4.98464E+00	1.32394E+00	1.40760E-03
5.03180E+00	1.32291E+00	8.19292E-04
5.07986E+00	1.32192E+00	5.38508E-04
5.12885E+00	1.32098E+00	4.07479E-04
5.17880E+00	1.32006E+00	3.58560E-04
5.22972E+00	1.31917E+00	3.71704E-04
5.28166E+00	1.31829E+00	4.17238E-04
5.33464E+00	1.31740E+00	5.09513E-04
5.38870E+00	1.31652E+00	6.30165E-04
5.44386E+00	1.31563E+00	7.67867E-04
5.50016E+00	1.31471E+00	9.23029E-04
5.55764E+00	1.31374E+00	1.08349E-03
5.61633E+00	1.31265E+00	1.28210E-03
5.67627E+00	1.31150E+00	1.92489E-03
5.73751E+00	1.31098E+00	2.18899E-03
5.80009E+00	1.30979E+00	2.22108E-03
5.86404E+00	1.30844E+00	2.55449E-03
5.92942E+00	1.30710E+00	3.06688E-03
5.99628E+00	1.30576E+00	3.59950E-03
6.06466E+00	1.30426E+00	4.20438E-03
6.13461E+00	1.30252E+00	4.95014E-03
6.20620E+00	1.30052E+00	6.05460E-03
6.27948E+00	1.29907E+00	7.18008E-03
6.35451E+00	1.29663E+00	8.37356E-03
6.43136E+00	1.29373E+00	1.01878E-02
6.51009E+00	1.29039E+00	1.26883E-02
6.59077E+00	1.28580E+00	1.65690E-02
6.67347E+00	1.28032E+00	2.43752E-02
6.75828E+00	1.27964E+00	4.00383E-02
6.84526E+00	1.28927E+00	5.33788E-02
6.93452E+00	1.31355E+00	5.33064E-02
7.02614E+00	1.31565E+00	5.22700E-02
7.12021E+00	1.32820E+00	4.88272E-02
7.21683E+00	1.33509E+00	3.75706E-02
7.31611E+00	1.33435E+00	2.56773E-02
7.41816E+00	1.32973E+00	1.90869E-02
7.52310E+00	1.32489E+00	1.54239E-02
7.63105E+00	1.32080E+00	1.34820E-02
7.74214E+00	1.31684E+00	1.19676E-02
7.85651E+00	1.31257E+00	1.12185E-02
7.97432E+00	1.30935E+00	1.10156E-02
8.09571E+00	1.30481E+00	1.01426E-02
8.22085E+00	1.29982E+00	1.03244E-02
8.34992E+00	1.29415E+00	1.04632E-02
8.48311E+00	1.28680E+00	1.11606E-02
8.62062E+00	1.27722E+00	1.33569E-02
8.76266E+00	1.26278E+00	1.97710E-02
8.90946E+00	1.25726E+00	3.99933E-02
9.06127E+00	1.26197E+00	3.78003E-02
9.21833E+00	1.23527E+00	2.95235E-02
9.38094E+00	1.17215E+00	4.04791E-02
9.54938E+00	9.97070E-01	1.73931E-01
9.72399E+00	1.42894E+00	6.31575E-01
9.90510E+00	1.62491E+00	1.44156E-01
1.00931E+01	1.50176E+00	2.97861E-02
1.02883E+01	1.44395E+00	1.16630E-02
1.04913E+01	1.41355E+00	5.32652E-03
1.07024E+01	1.39353E+00	2.09966E-03
1.09222E+01	1.37829E+00	8.05092E-04
1.11512E+01	1.36617E+00	1.19848E-03
1.13901E+01	1.35589E+00	2.47230E-03
1.16394E+01	1.34683E+00	5.06086E-03
1.18998E+01	1.33898E+00	9.00674E-03
1.21722E+01	1.33247E+00	1.42894E-02
1.24573E+01	1.32760E+00	2.07528E-02
1.27561E+01	1.32449E+00	2.79723E-02
1.30696E+01	1.32308E+00	3.56564E-02
1.33988E+01	1.32339E+00	4.36999E-02
1.37451E+01	1.32559E+00	5.20150E-02
1.41098E+01	1.33014E+00	6.02656E-02
1.44944E+01	1.33746E+00	6.77050E-02
1.49005E+01	1.34741E+00	7.30909E-02
1.53300E+01	1.35912E+00	7.52279E-02
1.57850E+01	1.37119E+00	7.36869E-02
1.62679E+01	1.38216E+00	6.88492E-02
1.67812E+01	1.39114E+00	6.11776E-02
1.73280E+01	1.39733E+00	5.19499E-02
1.79116E+01	1.40072E+00	4.21886E-02
1.85358E+01	1.40176E+00	3.28166E-02
1.92052E+01	1.40079E+00	2.41075E-02
1.99247E+01	1.39830E+00	1.64919E-02
2.07003E+01	1.39463E+00	1.01211E-02
2.15387E+01	1.39013E+00	5.12450E-03
2.24478E+01	1.38488E+00	1.83275E-03
2.34371E+01	1.37997E+00	6.10601E-04
2.45175E+01	1.37664E+00	1.11331E-03
