Material: organic / C8H19NO - diisopropylaminoethanol / Myers
Optical constants. T. L. Myers, R. G. Tonkyn, T. O. Danby, M. S. Taubman, B. E. Bernacki, J. C. Birnbaum, S. W. Sharpe, T. J. Johnson. Accurate measurement of the optical constants n and k for a series of 57 inorganic and organic liquids for optical modeling and detection, Appl. Spectrosc. 72, 535-550 (2018) (see Supplemental Material for numerical data)
Comments: 26 Â°C
Specs: {"n_absolute": true, "wavelength_vacuum": true, "temperature": "26 Â°C"}
wavelength (um)	n	k
1.28244E+00	1.42868E+00	2.79861E-05
1.28554E+00	1.42870E+00	2.81807E-05
1.28866E+00	1.42870E+00	2.79266E-05
1.29179E+00	1.42870E+00	2.79105E-05
1.29493E+00	1.42869E+00	2.77030E-05
1.29809E+00	1.42869E+00	2.76815E-05
1.30127E+00	1.42868E+00	2.78372E-05
1.30446E+00	1.42868E+00	2.77762E-05
1.30767E+00	1.42867E+00	2.75737E-05
1.31089E+00	1.42867E+00	2.73376E-05
1.31413E+00	1.42866E+00	2.71853E-05
1.31739E+00	1.42866E+00	2.71431E-05
1.32066E+00	1.42865E+00	2.71893E-05
1.32395E+00	1.42864E+00	2.74513E-05
1.32725E+00	1.42864E+00	2.75231E-05
1.33057E+00	1.42863E+00	2.76735E-05
1.33391E+00	1.42863E+00	2.77155E-05
1.33726E+00	1.42862E+00	2.78335E-05
1.34063E+00	1.42861E+00	2.79337E-05
1.34402E+00	1.42860E+00	2.82020E-05
1.34743E+00	1.42860E+00	2.88822E-05
1.35085E+00	1.42859E+00	3.02665E-05
1.35429E+00	1.42858E+00	3.20351E-05
1.35775E+00	1.42858E+00	3.40639E-05
1.36122E+00	1.42857E+00	3.50688E-05
1.36471E+00	1.42856E+00	3.50043E-05
1.36823E+00	1.42856E+00	3.56127E-05
1.37176E+00	1.42855E+00	3.64033E-05
1.37530E+00	1.42854E+00	3.74866E-05
1.37887E+00	1.42854E+00	3.82978E-05
1.38245E+00	1.42853E+00	3.82078E-05
1.38606E+00	1.42853E+00	3.74775E-05
1.38968E+00	1.42852E+00	3.77387E-05
1.39332E+00	1.42851E+00	3.83366E-05
1.39698E+00	1.42850E+00	3.79433E-05
1.40066E+00	1.42850E+00	3.76080E-05
1.40436E+00	1.42849E+00	3.80180E-05
1.40807E+00	1.42848E+00	3.85101E-05
1.41181E+00	1.42847E+00	3.92740E-05
1.41557E+00	1.42846E+00	3.88782E-05
1.41935E+00	1.42846E+00	3.81651E-05
1.42315E+00	1.42845E+00	3.80666E-05
1.42697E+00	1.42844E+00	3.89643E-05
1.43080E+00	1.42843E+00	4.05080E-05
1.43466E+00	1.42842E+00	4.22251E-05
1.43854E+00	1.42841E+00	4.32296E-05
1.44245E+00	1.42841E+00	4.36893E-05
1.44637E+00	1.42840E+00	4.41215E-05
1.45031E+00	1.42839E+00	4.50804E-05
1.45428E+00	1.42838E+00	4.59152E-05
1.45827E+00	1.42837E+00	4.65139E-05
1.46228E+00	1.42837E+00	4.69838E-05
1.46631E+00	1.42836E+00	4.67579E-05
1.47036E+00	1.42835E+00	4.66067E-05
1.47444E+00	1.42834E+00	4.64200E-05
1.47854E+00	1.42833E+00	4.60616E-05
1.48266E+00	1.42832E+00	4.56601E-05
1.48681E+00	1.42831E+00	4.53274E-05
1.49097E+00	1.42830E+00	4.51022E-05
1.49517E+00	1.42829E+00	4.47353E-05
1.49938E+00	1.42829E+00	4.41336E-05
1.50362E+00	1.42828E+00	4.32338E-05
1.50788E+00	1.42827E+00	4.21762E-05
1.51217E+00	1.42825E+00	4.12461E-05
1.51648E+00	1.42824E+00	4.05237E-05
1.52082E+00	1.42823E+00	3.97865E-05
1.52518E+00	1.42822E+00	3.91840E-05
1.52957E+00	1.42821E+00	3.86217E-05
1.53398E+00	1.42820E+00	3.83078E-05
1.53842E+00	1.42819E+00	3.81645E-05
1.54288E+00	1.42817E+00	3.81992E-05
1.54737E+00	1.42816E+00	3.83457E-05
1.55189E+00	1.42815E+00	3.86526E-05
1.55643E+00	1.42814E+00	3.90921E-05
1.56100E+00	1.42813E+00	3.93986E-05
1.56559E+00	1.42811E+00	3.96698E-05
1.57021E+00	1.42810E+00	3.99484E-05
1.57486E+00	1.42809E+00	4.00966E-05
1.57954E+00	1.42808E+00	4.00411E-05
1.58425E+00	1.42806E+00	3.98918E-05
1.58898E+00	1.42805E+00	3.96660E-05
1.59374E+00	1.42804E+00	3.94038E-05
1.59853E+00	1.42802E+00	3.90484E-05
1.60335E+00	1.42801E+00	3.87563E-05
1.60820E+00	1.42799E+00	3.86126E-05
1.61308E+00	1.42798E+00	3.85356E-05
1.61798E+00	1.42796E+00	3.85618E-05
1.62292E+00	1.42795E+00	3.86159E-05
1.62789E+00	1.42793E+00	3.85037E-05
1.63289E+00	1.42792E+00	3.81449E-05
1.63792E+00	1.42790E+00	3.75266E-05
1.64298E+00	1.42788E+00	3.70015E-05
1.64807E+00	1.42786E+00	3.66540E-05
1.65319E+00	1.42784E+00	3.66362E-05
1.65835E+00	1.42782E+00	3.71556E-05
1.66353E+00	1.42780E+00	3.82815E-05
1.66875E+00	1.42777E+00	4.08408E-05
1.67401E+00	1.42774E+00	4.75136E-05
1.67929E+00	1.42771E+00	6.65634E-05
1.68461E+00	1.42768E+00	1.06779E-04
1.68997E+00	1.42770E+00	1.39684E-04
1.69535E+00	1.42770E+00	1.40023E-04
1.70077E+00	1.42771E+00	1.57768E-04
1.70623E+00	1.42772E+00	1.35498E-04
1.71172E+00	1.42770E+00	1.24383E-04
1.71725E+00	1.42769E+00	1.24120E-04
1.72281E+00	1.42768E+00	1.22167E-04
1.72841E+00	1.42766E+00	1.19325E-04
1.73405E+00	1.42765E+00	1.27285E-04
1.73972E+00	1.42765E+00	1.29002E-04
1.74543E+00	1.42764E+00	1.11664E-04
1.75118E+00	1.42762E+00	9.58902E-05
1.75696E+00	1.42759E+00	8.84596E-05
1.76279E+00	1.42757E+00	9.11371E-05
1.76865E+00	1.42755E+00	9.85745E-05
1.77455E+00	1.42755E+00	9.40295E-05
1.78049E+00	1.42753E+00	7.83162E-05
1.78647E+00	1.42750E+00	6.86431E-05
1.79249E+00	1.42747E+00	6.57167E-05
1.79856E+00	1.42745E+00	6.64747E-05
1.80466E+00	1.42742E+00	6.63027E-05
1.81080E+00	1.42740E+00	6.87118E-05
1.81699E+00	1.42738E+00	6.99850E-05
1.82322E+00	1.42736E+00	6.54557E-05
1.82949E+00	1.42734E+00	5.97941E-05
1.83581E+00	1.42731E+00	5.62746E-05
1.84217E+00	1.42728E+00	5.41489E-05
1.84857E+00	1.42726E+00	5.25906E-05
1.85502E+00	1.42723E+00	5.19508E-05
1.86151E+00	1.42720E+00	5.15644E-05
1.86805E+00	1.42717E+00	5.20072E-05
1.87463E+00	1.42715E+00	5.22311E-05
1.88127E+00	1.42712E+00	5.13271E-05
1.88794E+00	1.42709E+00	4.98286E-05
1.89467E+00	1.42706E+00	4.89959E-05
1.90144E+00	1.42703E+00	4.93700E-05
1.90827E+00	1.42700E+00	4.97213E-05
1.91514E+00	1.42697E+00	4.96186E-05
1.92206E+00	1.42694E+00	4.99365E-05
1.92903E+00	1.42691E+00	5.04270E-05
1.93606E+00	1.42687E+00	5.10676E-05
1.94313E+00	1.42684E+00	5.19470E-05
1.95025E+00	1.42681E+00	5.06836E-05
1.95743E+00	1.42677E+00	4.95416E-05
1.96466E+00	1.42673E+00	4.99787E-05
1.97195E+00	1.42670E+00	5.14922E-05
1.97929E+00	1.42666E+00	5.32574E-05
1.98668E+00	1.42662E+00	5.48594E-05
1.99413E+00	1.42658E+00	5.70457E-05
2.00164E+00	1.42654E+00	6.04880E-05
2.00920E+00	1.42650E+00	6.38892E-05
2.01682E+00	1.42645E+00	6.81562E-05
2.02450E+00	1.42641E+00	7.38848E-05
2.03223E+00	1.42637E+00	8.26625E-05
2.04003E+00	1.42632E+00	9.44173E-05
2.04788E+00	1.42628E+00	1.07116E-04
2.05580E+00	1.42625E+00	1.17708E-04
2.06378E+00	1.42621E+00	1.24269E-04
2.07182E+00	1.42618E+00	1.27764E-04
2.07992E+00	1.42614E+00	1.27860E-04
2.08809E+00	1.42610E+00	1.24582E-04
2.09632E+00	1.42606E+00	1.19479E-04
2.10461E+00	1.42601E+00	1.14238E-04
2.11298E+00	1.42596E+00	1.09487E-04
2.12140E+00	1.42591E+00	1.04673E-04
2.12990E+00	1.42585E+00	1.00267E-04
2.13846E+00	1.42579E+00	9.70584E-05
2.14710E+00	1.42573E+00	9.50852E-05
2.15580E+00	1.42567E+00	9.35099E-05
2.16458E+00	1.42560E+00	9.22750E-05
2.17342E+00	1.42553E+00	9.16460E-05
2.18234E+00	1.42545E+00	9.19025E-05
2.19133E+00	1.42537E+00	9.26135E-05
2.20040E+00	1.42529E+00	9.33647E-05
2.20954E+00	1.42519E+00	9.54020E-05
2.21876E+00	1.42509E+00	1.01145E-04
2.22806E+00	1.42496E+00	1.14926E-04
2.23743E+00	1.42482E+00	1.48748E-04
2.24688E+00	1.42465E+00	2.32540E-04
2.25642E+00	1.42452E+00	3.91355E-04
2.26603E+00	1.42447E+00	6.01698E-04
2.27573E+00	1.42460E+00	7.60910E-04
2.28551E+00	1.42464E+00	6.63815E-04
2.29537E+00	1.42451E+00	7.01731E-04
2.30532E+00	1.42450E+00	9.00766E-04
2.31536E+00	1.42471E+00	9.49147E-04
2.32548E+00	1.42476E+00	7.75475E-04
2.33570E+00	1.42471E+00	6.91786E-04
2.34600E+00	1.42466E+00	6.02371E-04
2.35639E+00	1.42454E+00	4.99300E-04
2.36688E+00	1.42442E+00	4.35711E-04
2.37746E+00	1.42423E+00	3.86643E-04
2.38814E+00	1.42403E+00	4.28096E-04
2.39891E+00	1.42390E+00	5.19229E-04
2.40978E+00	1.42384E+00	5.97833E-04
2.42075E+00	1.42381E+00	5.86579E-04
2.43182E+00	1.42369E+00	5.39856E-04
2.44299E+00	1.42353E+00	5.76100E-04
2.45426E+00	1.42345E+00	6.42364E-04
2.46564E+00	1.42338E+00	6.52997E-04
2.47713E+00	1.42336E+00	6.64554E-04
2.48872E+00	1.42327E+00	5.36055E-04
2.50042E+00	1.42309E+00	4.73716E-04
2.51223E+00	1.42292E+00	4.39892E-04
2.52416E+00	1.42274E+00	3.99284E-04
2.53619E+00	1.42256E+00	3.53761E-04
2.54835E+00	1.42231E+00	3.23471E-04
2.56062E+00	1.42210E+00	3.27423E-04
2.57300E+00	1.42187E+00	3.07368E-04
2.58551E+00	1.42163E+00	2.92394E-04
2.59814E+00	1.42137E+00	2.73262E-04
2.61090E+00	1.42107E+00	2.39991E-04
2.62378E+00	1.42075E+00	2.54160E-04
2.63679E+00	1.42045E+00	2.50761E-04
2.64993E+00	1.42009E+00	2.09453E-04
2.66320E+00	1.41967E+00	1.92344E-04
2.67660E+00	1.41921E+00	1.95888E-04
2.69014E+00	1.41871E+00	2.04874E-04
2.70382E+00	1.41815E+00	2.27923E-04
2.71764E+00	1.41751E+00	2.55830E-04
2.73159E+00	1.41674E+00	3.10264E-04
2.74570E+00	1.41588E+00	5.01588E-04
2.75995E+00	1.41494E+00	6.80317E-04
2.77434E+00	1.41373E+00	9.86165E-04
2.78889E+00	1.41231E+00	1.55742E-03
2.80359E+00	1.41073E+00	2.53721E-03
2.81845E+00	1.40908E+00	4.05877E-03
2.83347E+00	1.40756E+00	6.27709E-03
2.84865E+00	1.40657E+00	9.26691E-03
2.86399E+00	1.40655E+00	1.27949E-02
2.87949E+00	1.40781E+00	1.63484E-02
2.89517E+00	1.41026E+00	1.92220E-02
2.91102E+00	1.41334E+00	2.08862E-02
2.92704E+00	1.41626E+00	2.14333E-02
2.94324E+00	1.41869E+00	2.13130E-02
2.95962E+00	1.42070E+00	2.09422E-02
2.97618E+00	1.42250E+00	2.04065E-02
2.99293E+00	1.42416E+00	1.96479E-02
3.00987E+00	1.42561E+00	1.85898E-02
3.02700E+00	1.42673E+00	1.72895E-02
3.04433E+00	1.42750E+00	1.58083E-02
3.06185E+00	1.42784E+00	1.42676E-02
3.07958E+00	1.42779E+00	1.27789E-02
3.09752E+00	1.42741E+00	1.13976E-02
3.11567E+00	1.42676E+00	1.01745E-02
3.13403E+00	1.42589E+00	9.09979E-03
3.15261E+00	1.42484E+00	8.10167E-03
3.17141E+00	1.42347E+00	7.17473E-03
3.19043E+00	1.42178E+00	6.39825E-03
3.20969E+00	1.41972E+00	5.77682E-03
3.22918E+00	1.41721E+00	5.32426E-03
3.24891E+00	1.41410E+00	5.02507E-03
3.26888E+00	1.40999E+00	4.90422E-03
3.28909E+00	1.40409E+00	5.08419E-03
3.30956E+00	1.39450E+00	6.16722E-03
3.33028E+00	1.37534E+00	1.19440E-02
3.35127E+00	1.34675E+00	5.58784E-02
3.37252E+00	1.42607E+00	1.36792E-01
3.39405E+00	1.45398E+00	5.54586E-02
3.41585E+00	1.45520E+00	5.54639E-02
3.43793E+00	1.45439E+00	3.80813E-02
3.46030E+00	1.44698E+00	3.80379E-02
3.48296E+00	1.46120E+00	4.62922E-02
3.50592E+00	1.46387E+00	2.39403E-02
3.52919E+00	1.45816E+00	2.26134E-02
3.55276E+00	1.46022E+00	1.86681E-02
3.57666E+00	1.45890E+00	1.26922E-02
3.60087E+00	1.45574E+00	8.82871E-03
3.62542E+00	1.45265E+00	6.39737E-03
3.65030E+00	1.44971E+00	5.29710E-03
3.67553E+00	1.44759E+00	5.11616E-03
3.70111E+00	1.44666E+00	4.77265E-03
3.72705E+00	1.44555E+00	3.78647E-03
3.75335E+00	1.44409E+00	3.31391E-03
3.78003E+00	1.44276E+00	3.03650E-03
3.80709E+00	1.44151E+00	3.42911E-03
3.83454E+00	1.44184E+00	4.52521E-03
3.86239E+00	1.44220E+00	2.51281E-03
3.89065E+00	1.44091E+00	1.89203E-03
3.91932E+00	1.43996E+00	1.65361E-03
3.94842E+00	1.43923E+00	1.56392E-03
3.97795E+00	1.43859E+00	1.41627E-03
4.00793E+00	1.43800E+00	1.37843E-03
4.03836E+00	1.43752E+00	1.40870E-03
4.06926E+00	1.43718E+00	1.24147E-03
4.10064E+00	1.43670E+00	1.10251E-03
4.13251E+00	1.43625E+00	9.99502E-04
4.16487E+00	1.43583E+00	8.98840E-04
4.19774E+00	1.43538E+00	8.79176E-04
4.23114E+00	1.43508E+00	8.27835E-04
4.26507E+00	1.43473E+00	6.79943E-04
4.29955E+00	1.43427E+00	5.55547E-04
4.33460E+00	1.43381E+00	5.65660E-04
4.37022E+00	1.43343E+00	5.95289E-04
4.40643E+00	1.43315E+00	6.40761E-04
4.44324E+00	1.43282E+00	6.47676E-04
4.48068E+00	1.43253E+00	6.04514E-04
4.51875E+00	1.43228E+00	4.97670E-04
4.55747E+00	1.43196E+00	5.16693E-04
4.59687E+00	1.43160E+00	3.59115E-04
4.63695E+00	1.43115E+00	3.51674E-04
4.67773E+00	1.43073E+00	4.25816E-04
4.71924E+00	1.43038E+00	5.01410E-04
4.76149E+00	1.43006E+00	6.70404E-04
4.80451E+00	1.42993E+00	7.80585E-04
4.84831E+00	1.42980E+00	6.99132E-04
4.89292E+00	1.42955E+00	5.47753E-04
4.93835E+00	1.42917E+00	3.87690E-04
4.98464E+00	1.42873E+00	2.86450E-04
5.03180E+00	1.42825E+00	2.65484E-04
5.07986E+00	1.42776E+00	3.41311E-04
5.12885E+00	1.42739E+00	4.45380E-04
5.17880E+00	1.42703E+00	4.78896E-04
5.22972E+00	1.42668E+00	5.73337E-04
5.28166E+00	1.42629E+00	4.46374E-04
5.33464E+00	1.42579E+00	5.06643E-04
5.38870E+00	1.42541E+00	4.28980E-04
5.44386E+00	1.42482E+00	3.27286E-04
5.50016E+00	1.42419E+00	4.05862E-04
5.55764E+00	1.42356E+00	4.13352E-04
5.61633E+00	1.42286E+00	4.93907E-04
5.67627E+00	1.42211E+00	6.33480E-04
5.73751E+00	1.42143E+00	8.90403E-04
5.80009E+00	1.42083E+00	9.44635E-04
5.86404E+00	1.42008E+00	1.04884E-03
5.92942E+00	1.41913E+00	1.12263E-03
5.99628E+00	1.41839E+00	1.37863E-03
6.06466E+00	1.41730E+00	1.24961E-03
6.13461E+00	1.41601E+00	1.26407E-03
6.20620E+00	1.41454E+00	1.41277E-03
6.27948E+00	1.41279E+00	1.40181E-03
6.35451E+00	1.41048E+00	1.61715E-03
6.43136E+00	1.40778E+00	2.00070E-03
6.51009E+00	1.40419E+00	2.49874E-03
6.59077E+00	1.39884E+00	3.42175E-03
6.67347E+00	1.38901E+00	6.23674E-03
6.75828E+00	1.37710E+00	3.30002E-02
6.84526E+00	1.41313E+00	4.81034E-02
6.93452E+00	1.41242E+00	2.51893E-02
7.02614E+00	1.39791E+00	2.25261E-02
7.12021E+00	1.38926E+00	4.12946E-02
7.21683E+00	1.40551E+00	7.40909E-02
7.31611E+00	1.42730E+00	8.37982E-02
7.41816E+00	1.45352E+00	2.03492E-02
7.52310E+00	1.43691E+00	3.24995E-02
7.63105E+00	1.43363E+00	2.30834E-02
7.74214E+00	1.42800E+00	1.75339E-02
7.85651E+00	1.41641E+00	2.31042E-02
7.97432E+00	1.41223E+00	1.83262E-02
8.09571E+00	1.41223E+00	2.87935E-02
8.22085E+00	1.38983E+00	4.28335E-02
8.34992E+00	1.42895E+00	6.38430E-02
8.48311E+00	1.43601E+00	6.74559E-02
8.62062E+00	1.45241E+00	5.45064E-02
8.76266E+00	1.43567E+00	4.83749E-02
8.90946E+00	1.43968E+00	5.79301E-02
9.06127E+00	1.44252E+00	3.01088E-02
9.21833E+00	1.41991E+00	4.35699E-02
9.38094E+00	1.42620E+00	6.96179E-02
9.54938E+00	1.39390E+00	1.21045E-01
9.72399E+00	1.53099E+00	1.12294E-01
9.90510E+00	1.51746E+00	2.85490E-02
1.00931E+01	1.47785E+00	2.97247E-02
1.02883E+01	1.50139E+00	1.45483E-02
1.04913E+01	1.48027E+00	5.09174E-03
1.07024E+01	1.47141E+00	8.52834E-03
1.09222E+01	1.47005E+00	6.59797E-03
1.11512E+01	1.45592E+00	8.37589E-03
1.13901E+01	1.45433E+00	2.91985E-02
1.16394E+01	1.47656E+00	6.57949E-03
1.18998E+01	1.46541E+00	7.56483E-03
1.21722E+01	1.46429E+00	2.58380E-03
1.24573E+01	1.45869E+00	1.32396E-03
1.27561E+01	1.45468E+00	4.34507E-03
1.30696E+01	1.45479E+00	5.49170E-03
1.33988E+01	1.45838E+00	2.71461E-03
1.37451E+01	1.45381E+00	5.95965E-03
1.41098E+01	1.45280E+00	2.20526E-03
1.44944E+01	1.44864E+00	1.24189E-02
1.49005E+01	1.45594E+00	2.43953E-03
1.53300E+01	1.45106E+00	1.54249E-03
1.57850E+01	1.44761E+00	2.52160E-03
1.62679E+01	1.44446E+00	4.27011E-03
1.67812E+01	1.43762E+00	1.15132E-02
1.73280E+01	1.44851E+00	2.16753E-02
1.79116E+01	1.44911E+00	1.64127E-02
1.85358E+01	1.45282E+00	1.71403E-02
1.92052E+01	1.45445E+00	1.74199E-02
1.99247E+01	1.45994E+00	1.77885E-02
2.07003E+01	1.46862E+00	1.26206E-02
2.15387E+01	1.46295E+00	2.09362E-03
2.24478E+01	1.45584E+00	1.95373E-03
2.34371E+01	1.45401E+00	9.38253E-03
2.45175E+01	1.45838E+00	8.87721E-03
