Material: organic / (C2H4)n - polyethylene / David
Optical constants. M. David, D. Disnan, A. Lardschneider, D. Wacht, H. Hoang, G. Ramer, H. Detz, B. Lendl, U. Schmid, G. Strasser, B. Hinkov. Structure and mid-infrared optical properties of spin-coated polyethylene films developed for integrated photonics applications, Opt. Mater. Express 12, 2168-2180 (2022)
Comments: Spin-coated LLDPE. Measured using approximately 270 nm thick film (concentration 2%, dissolved in Toluene). Data at λ < 2 μm removed on author's request.
wavelength (um)	n	k
1.999965	1.333523	0.000000
2.039697	1.357032	0.000000
2.079787	1.366650	0.000000
2.119750	1.376667	0.000000
2.159928	1.390119	0.000000
2.199792	1.401048	0.000000
2.239701	1.408610	0.000000
2.279582	1.416836	0.000000
2.319870	1.415781	0.000000
2.359995	1.423174	0.000000
2.399865	1.428584	0.000000
2.439957	1.434880	0.000000
2.479631	1.440385	0.000000
2.519392	1.443345	0.000000
2.559817	1.448115	0.000000
2.599603	1.450272	0.000000
2.639973	1.451893	0.000000
2.679539	1.455682	0.000000
2.719595	1.457453	0.000000
2.759398	1.460138	0.000000
2.799627	1.460454	0.000000
2.839490	1.460683	0.000000
2.879705	1.463230	0.000000
2.919430	1.464274	0.000172
2.959423	1.464198	0.000000
2.999657	1.465281	0.000266
3.039220	1.465382	0.000124
3.079839	1.467412	0.002114
3.119680	1.465299	0.001769
3.159603	1.463889	0.002718
3.199573	1.461914	0.003040
3.239556	1.459026	0.004307
3.279512	1.450959	0.003985
3.319404	1.440126	0.006820
3.359189	1.410867	0.018289
3.399940	1.371296	0.099345
3.439408	1.547356	0.162501
3.479804	1.523963	0.071419
3.519965	1.582231	0.074763
3.559841	1.557092	0.011794
3.599382	1.537133	0.008555
3.639810	1.527536	0.006950
3.679850	1.524120	0.008287
3.719447	1.521141	0.008942
3.759905	1.518512	0.008646
3.799860	1.517261	0.008376
3.839251	1.516285	0.007571
3.879468	1.515308	0.007044
3.919054	1.515725	0.007760
3.959457	1.515865	0.008179
3.999159	1.515443	0.008206
4.039663	1.514847	0.007346
4.079393	1.514815	0.007382
4.119911	1.514251	0.007324
4.159573	1.513716	0.006243
4.198306	1.515949	0.009736
4.239500	1.514701	0.009980
4.279743	1.514790	0.009772
4.318957	1.515938	0.009597
4.358898	1.515697	0.008585
4.399582	1.515417	0.007073
4.439133	1.516322	0.008703
4.479404	1.516117	0.008590
4.518438	1.515698	0.007251
4.558161	1.516606	0.008869
4.598589	1.517246	0.008771
4.639740	1.517774	0.008893
4.679521	1.517115	0.007181
4.719989	1.517139	0.006953
4.758979	1.517749	0.007198
4.798619	1.516571	0.004366
4.838927	1.518108	0.005843
4.879913	1.518927	0.007458
4.919267	1.519746	0.008549
4.959262	1.520665	0.008927
4.999913	1.520495	0.006372
5.038784	1.521853	0.008269
5.078264	1.521538	0.007984
5.118370	1.521035	0.006321
5.159112	1.521213	0.006971
5.197902	1.522582	0.006696
5.239928	1.522900	0.005964
5.279948	1.523722	0.007387
5.317853	1.524114	0.007039
5.359080	1.525046	0.006566
5.398134	1.523564	0.004638
5.437765	1.523676	0.005701
5.477981	1.524619	0.005907
5.518794	1.524488	0.004687
5.557244	1.525459	0.006039
5.599255	1.525219	0.005280
5.638835	1.525282	0.005368
5.678979	1.525973	0.005153
5.719701	1.526386	0.005195
5.757811	1.527148	0.005412
5.799673	1.527810	0.004791
5.838860	1.526097	0.004288
5.878580	1.525077	0.003477
5.918844	1.524617	0.003728
5.959664	1.526292	0.004288
5.997581	1.527027	0.004291
6.039497	1.528566	0.005773
6.078440	1.527968	0.005251
6.117884	1.525812	0.003279
6.157848	1.524926	0.001475
6.198337	1.526078	0.003221
6.239362	1.526780	0.003978
6.277129	1.523654	0.000962
6.319207	1.525563	0.001680
6.357950	1.526880	0.002779
6.397171	1.527445	0.002275
6.436883	1.524904	0.002011
6.477087	1.524288	0.003428
6.517800	1.523863	0.002170
6.559024	1.523609	0.002403
6.596576	1.520289	0.001188
6.638806	1.518256	0.002670
6.677279	1.514237	0.001681
6.716201	1.507546	0.002438
6.759986	1.489327	0.012762
6.799881	1.494153	0.056079
6.835737	1.538224	0.076637
6.876539	1.564276	0.033582
6.917825	1.555691	0.015991
6.959611	1.550696	0.008634
6.997176	1.550368	0.004044
7.039928	1.547434	0.003381
7.078373	1.543808	0.002002
7.117240	1.538220	0.000000
7.156531	1.539437	0.001246
7.196264	1.536764	0.002222
7.236440	1.532823	0.007736
7.277067	1.539844	0.008855
7.318148	1.542164	0.005597
7.359700	1.542048	0.004763
7.396444	1.543771	0.005787
7.438893	1.542521	0.003312
7.476434	1.542659	0.000459
7.519809	1.541304	0.001509
7.558173	1.541259	0.000776
7.596937	1.539127	0.000000
7.636094	1.538466	0.000000
7.675663	1.539677	0.000961
7.715639	1.541789	0.002312
7.756032	1.542507	0.002045
7.796858	1.542794	0.002084
7.838109	1.539956	0.000000
7.879798	1.540545	0.000000
7.915889	1.542029	0.000000
7.958419	1.539931	0.000000
7.995235	1.539837	0.000000
8.038618	1.539304	0.000000
8.076181	1.538811	0.000676
8.114097	1.538923	0.000000
8.158790	1.537565	0.000000
8.197487	1.537986	0.000000
8.236554	1.540509	0.000000
8.275994	1.539978	0.000000
8.315815	1.536551	0.000000
8.356020	1.536945	0.000000
8.396616	1.535435	0.000000
8.437608	1.535785	0.000000
8.479003	1.537799	0.000000
8.513805	1.541832	0.000000
8.555952	1.538773	0.000000
8.598519	1.538878	0.000000
8.634318	1.540116	0.000000
8.677671	1.537579	0.000000
8.714134	1.537338	0.000420
8.758293	1.538180	0.000000
8.795438	1.535223	0.001269
8.832892	1.537777	0.000000
8.878267	1.541889	0.001505
8.916439	1.542100	0.005238
8.954941	1.540054	0.007372
8.993768	1.537937	0.002238
9.032942	1.539741	0.003785
9.072459	1.545032	0.000000
9.112315	1.544547	0.000000
9.152531	1.542784	0.000000
9.193103	1.542644	0.001530
9.234028	1.538983	0.000000
9.275328	1.538870	0.000000
9.316999	1.542895	0.000000
9.359037	1.539289	0.000000
9.392952	1.537129	0.003515
9.435680	1.542214	0.002827
9.478808	1.539738	0.001730
9.513589	1.542739	0.000000
9.557433	1.539074	0.000000
9.592805	1.543700	0.000000
9.637375	1.539793	0.000000
9.673341	1.538858	0.000000
9.718664	1.541811	0.000000
9.755241	1.543843	0.001620
9.792085	1.541981	0.002408
9.838540	1.540688	0.004296
9.876016	1.542876	0.000000
9.913780	1.539386	0.000000
9.951843	1.540499	0.000088
9.999820	1.542173	0.000000
10.038550	1.543701	0.004440
10.077570	1.541396	0.005845
10.116890	1.538145	0.000000
10.156530	1.537774	0.000000
10.196480	1.543108	0.000619
10.236730	1.544993	0.000000
10.277320	1.539747	0.002258
10.318220	1.543080	0.007239
10.359450	1.542242	0.005236
10.390590	1.541486	0.005351
10.432410	1.542977	0.005567
10.474560	1.545178	0.001907
10.517060	1.543624	0.003453
10.559900	1.542061	0.000000
10.592260	1.546102	0.000000
10.635710	1.544665	0.001785
10.679530	1.542913	0.000000
10.712630	1.545789	0.000280
10.757070	1.543492	0.004021
10.790650	1.540577	0.000795
10.835750	1.545648	0.007926
10.869830	1.544151	0.009699
10.915600	1.540736	0.004631
10.950180	1.536745	0.000000
10.996620	1.547070	0.002292
11.031720	1.539470	0.003341
11.078860	1.537343	0.004416
11.114480	1.540766	0.000000
11.150340	1.541666	0.004054
11.198510	1.546389	0.008221
11.234910	1.541606	0.009697
11.271540	1.544477	0.007026
11.308420	1.551150	0.002924
11.357960	1.541158	0.005281
11.395400	1.550529	0.000000
11.433090	1.549803	0.000000
11.471030	1.548477	0.004241
11.509230	1.543543	0.003575
11.547680	1.544239	0.002644
11.599350	1.548744	0.006158
11.638410	1.548240	0.002598
11.677730	1.545721	0.008123
11.717310	1.547475	0.007728
11.757170	1.547257	0.002062
11.797290	1.540349	0.003199
11.837700	1.547926	0.004413
11.878370	1.548218	0.004363
11.919330	1.545810	0.002047
11.946790	1.545001	0.005563
11.988220	1.544458	0.007068
12.029940	1.542809	0.009042
12.071960	1.542486	0.005302
12.114270	1.550542	0.007114
12.156870	1.555822	0.003158
12.199780	1.549581	0.007740
12.228560	1.543411	0.002958
