Material: inorganic / Ir / Schmitt-ALD
Optical constants. P. Schmitt, N. Felde, T. Doehring, M. Stollenwerk, I. Uschmann, K. Hanemann, M. Siegler, G. Klemm, N. Gratzke, A. Tuennermann, S. Schwinde, S. Schroeder, A. Szeghalmi. Optical, structural, and functional properties of highly reflective and stable iridium mirror coatings for infrared applications, Opt. Mater. Express 12, 545-559 (2022)(See supplementary materials for numerical data. High-resolution data kindly provided by Paul Schmitt.)
Comments: Iridium coating deposited by atomic layer deposition (ALD).
Specs: {"n_absolute": true, "wavelength_vacuum": true, "film_thickness": "66 nm", "substrate": "Si", "deposition_method": "ALD"}
wavelength (um)	n	k
0.2000	0.927	1.909
0.2495	1.076	2.878
0.2990	1.758	3.332
0.3486	1.753	3.510
0.3981	1.933	3.996
0.4476	2.111	4.358
0.4971	2.315	4.748
0.5467	2.558	5.077
0.5962	2.787	5.339
0.6457	2.977	5.557
0.6952	3.119	5.754
0.7448	3.219	5.953
0.7943	3.289	6.164
0.8438	3.341	6.394
0.8933	3.387	6.642
0.9429	3.434	6.902
0.9924	3.486	7.169
1.0419	3.543	7.437
1.0914	3.605	7.702
1.1410	3.669	7.961
1.1905	3.731	8.213
1.2400	3.788	8.457
1.2895	3.838	8.694
1.3391	3.878	8.927
1.3886	3.907	9.159
1.4381	3.925	9.392
1.4876	3.932	9.629
1.5372	3.929	9.871
1.5867	3.918	10.121
1.6362	3.902	10.380
1.6857	3.881	10.649
1.7353	3.858	10.927
1.7848	3.834	11.214
1.8343	3.811	11.511
1.8838	3.790	11.816
1.9334	3.772	12.129
1.9829	3.758	12.449
2.0324	3.749	12.774
2.0819	3.744	13.104
2.1315	3.745	13.439
2.1810	3.751	13.777
2.2305	3.762	14.118
2.2800	3.779	14.461
2.3296	3.801	14.806
2.3791	3.827	15.153
2.4286	3.859	15.500
2.4781	3.895	15.847
2.5277	3.936	16.195
2.5772	3.981	16.542
2.6267	4.030	16.890
2.6762	4.084	17.236
2.7258	4.141	17.583
2.7753	4.201	17.928
2.8248	4.266	18.272
2.8743	4.333	18.616
2.9239	4.404	18.958
2.9734	4.478	19.299
3.0229	4.555	19.639
3.0724	4.634	19.977
3.1220	4.716	20.315
3.1715	4.801	20.650
3.2210	4.888	20.985
3.2705	4.978	21.318
3.3201	5.070	21.649
3.3696	5.164	21.979
3.4191	5.261	22.308
3.4686	5.359	22.635
3.5182	5.459	22.960
3.5677	5.562	23.284
3.6172	5.666	23.606
3.6667	5.772	23.927
3.7163	5.879	24.246
3.7658	5.989	24.564
3.8153	6.100	24.880
3.8648	6.212	25.194
3.9144	6.326	25.507
3.9639	6.442	25.819
4.0134	6.558	26.128
4.0629	6.677	26.437
4.1125	6.796	26.743
4.1620	6.917	27.049
4.2115	7.040	27.352
4.2610	7.163	27.654
4.3106	7.288	27.955
4.3601	7.414	28.254
4.4096	7.541	28.551
4.4591	7.669	28.847
4.5087	7.798	29.142
4.5582	7.928	29.434
4.6077	8.059	29.726
4.6572	8.192	30.016
4.7068	8.325	30.304
4.7563	8.459	30.591
4.8058	8.594	30.876
4.8553	8.729	31.160
4.9049	8.866	31.442
4.9544	9.004	31.723
5.0039	9.142	32.003
5.0534	9.281	32.281
5.1030	9.421	32.557
5.1525	9.561	32.832
5.2020	9.703	33.106
5.2515	9.845	33.378
5.3011	9.987	33.649
5.3506	10.131	33.918
5.4001	10.275	34.186
5.4496	10.419	34.452
5.4991	10.564	34.717
5.5487	10.710	34.981
5.5982	10.856	35.243
5.6477	11.003	35.504
5.6972	11.151	35.764
5.7468	11.298	36.022
5.7963	11.447	36.278
5.8458	11.596	36.534
5.8953	11.745	36.788
5.9449	11.895	37.040
5.9944	12.045	37.292
6.0439	12.195	37.542
6.0934	12.346	37.790
6.1430	12.497	38.038
6.1925	12.649	38.284
6.2420	12.801	38.528
6.2915	12.954	38.772
6.3411	13.106	39.014
6.3906	13.259	39.255
6.4401	13.413	39.494
6.4896	13.566	39.733
6.5392	13.720	39.970
6.5887	13.874	40.206
6.6382	14.029	40.440
6.6877	14.183	40.674
6.7373	14.338	40.906
6.7868	14.493	41.137
6.8363	14.649	41.366
6.8858	14.804	41.595
6.9354	14.960	41.822
6.9849	15.116	42.048
7.0344	15.272	42.273
7.0839	15.428	42.497
7.1335	15.584	42.719
7.1830	15.741	42.941
7.2325	15.897	43.161
7.2820	16.054	43.380
7.3316	16.211	43.598
7.3811	16.368	43.815
7.4306	16.525	44.030
7.4801	16.682	44.245
7.5297	16.839	44.458
7.5792	16.996	44.671
7.6287	17.153	44.882
7.6782	17.311	45.092
7.7278	17.468	45.302
7.7773	17.625	45.510
7.8268	17.783	45.717
7.8763	17.940	45.923
7.9259	18.098	46.127
7.9754	18.255	46.331
8.0249	18.412	46.534
8.0744	18.570	46.736
8.1240	18.727	46.937
8.1735	18.885	47.137
8.2230	19.042	47.335
8.2725	19.199	47.533
8.3221	19.357	47.730
8.3716	19.514	47.926
8.4211	19.671	48.121
8.4706	19.828	48.315
8.5202	19.985	48.508
8.5697	20.142	48.700
8.6192	20.299	48.891
8.6687	20.456	49.081
8.7183	20.613	49.270
8.7678	20.769	49.458
8.8173	20.926	49.646
8.8668	21.082	49.832
8.9164	21.239	50.018
8.9659	21.395	50.202
9.0154	21.551	50.386
9.0649	21.707	50.569
9.1145	21.863	50.751
9.1640	22.019	50.932
9.2135	22.174	51.112
9.2630	22.330	51.292
9.3126	22.485	51.470
9.3621	22.641	51.648
9.4116	22.796	51.825
9.4611	22.951	52.001
9.5107	23.105	52.176
9.5602	23.260	52.351
9.6097	23.415	52.524
9.6592	23.569	52.697
9.7088	23.723	52.869
9.7583	23.877	53.041
9.8078	24.031	53.211
9.8573	24.185	53.381
9.9069	24.338	53.550
9.9564	24.491	53.718
10.0059	24.644	53.885
10.0554	24.797	54.052
10.1050	24.950	54.218
10.1545	25.103	54.383
10.2040	25.255	54.548
10.2535	25.407	54.711
10.3031	25.559	54.874
10.3526	25.711	55.037
10.4021	25.863	55.198
10.4516	26.014	55.359
10.5012	26.165	55.519
10.5507	26.316	55.679
10.6002	26.467	55.837
10.6497	26.618	55.995
10.6992	26.768	56.153
10.7488	26.918	56.310
10.7983	27.068	56.466
10.8478	27.218	56.621
10.8973	27.368	56.776
10.9469	27.517	56.930
10.9964	27.666	57.084
11.0459	27.815	57.236
11.0954	27.964	57.389
11.1450	28.112	57.540
11.1945	28.260	57.691
11.2440	28.408	57.842
11.2935	28.556	57.991
11.3431	28.704	58.140
11.3926	28.851	58.289
11.4421	28.998	58.437
11.4916	29.145	58.584
11.5412	29.291	58.731
11.5907	29.438	58.877
11.6402	29.584	59.023
11.6897	29.730	59.167
11.7393	29.876	59.312
11.7888	30.021	59.456
11.8383	30.166	59.599
11.8878	30.311	59.742
11.9374	30.456	59.884
11.9869	30.601	60.026
12.0364	30.745	60.167
12.0859	30.889	60.307
12.1355	31.033	60.447
12.1850	31.176	60.587
12.2345	31.320	60.726
12.2840	31.463	60.864
12.3336	31.605	61.002
12.3831	31.748	61.139
12.4326	31.890	61.276
12.4821	32.033	61.413
12.5317	32.174	61.548
12.5812	32.316	61.684
12.6307	32.457	61.819
12.6802	32.599	61.953
12.7298	32.739	62.087
12.7793	32.880	62.220
12.8288	33.021	62.353
12.8783	33.161	62.486
12.9279	33.301	62.618
12.9774	33.440	62.749
13.0269	33.580	62.880
13.0764	33.719	63.011
13.1260	33.858	63.141
13.1755	33.997	63.271
13.2250	34.135	63.400
13.2745	34.273	63.529
13.3241	34.411	63.657
13.3736	34.549	63.785
13.4231	34.687	63.912
13.4726	34.824	64.040
13.5222	34.961	64.166
13.5717	35.098	64.292
13.6212	35.234	64.418
13.6707	35.371	64.543
13.7203	35.507	64.668
13.7698	35.643	64.793
13.8193	35.778	64.917
13.8688	35.913	65.041
13.9184	36.049	65.164
13.9679	36.183	65.287
14.0174	36.318	65.409
14.0669	36.452	65.531
14.1165	36.586	65.653
14.1660	36.720	65.774
14.2155	36.854	65.895
14.2650	36.987	66.016
14.3146	37.121	66.136
14.3641	37.254	66.256
14.4136	37.386	66.375
14.4631	37.519	66.494
14.5127	37.651	66.613
14.5622	37.783	66.731
14.6117	37.915	66.849
14.6612	38.046	66.967
14.7108	38.177	67.084
14.7603	38.309	67.201
14.8098	38.439	67.317
14.8593	38.570	67.434
14.9089	38.700	67.549
14.9584	38.830	67.665
15.0079	38.960	67.780
15.0574	39.090	67.895
15.1070	39.219	68.009
15.1565	39.348	68.123
15.2060	39.477	68.237
15.2555	39.606	68.351
15.3051	39.735	68.464
15.3546	39.863	68.577
15.4041	39.991	68.689
15.4536	40.119	68.801
15.5032	40.246	68.913
15.5527	40.374	69.025
15.6022	40.501	69.136
15.6517	40.628	69.247
15.7013	40.754	69.357
15.7508	40.881	69.468
15.8003	41.007	69.578
15.8498	41.133	69.687
15.8993	41.259	69.797
15.9489	41.384	69.906
15.9984	41.510	70.015
16.0479	41.635	70.123
16.0974	41.760	70.231
16.1470	41.884	70.339
16.1965	42.009	70.447
16.2460	42.133	70.554
16.2955	42.257	70.661
16.3451	42.381	70.768
16.3946	42.504	70.875
16.4441	42.628	70.981
16.4936	42.751	71.087
16.5432	42.874	71.192
16.5927	42.996	71.298
16.6422	43.119	71.403
16.6917	43.241	71.508
16.7413	43.363	71.612
16.7908	43.485	71.717
16.8403	43.607	71.821
16.8898	43.728	71.925
16.9394	43.849	72.028
16.9889	43.970	72.131
17.0384	44.091	72.234
17.0879	44.212	72.337
17.1375	44.332	72.440
17.1870	44.452	72.542
17.2365	44.572	72.644
17.2860	44.692	72.746
17.3356	44.811	72.847
17.3851	44.931	72.949
17.4346	45.050	73.050
17.4841	45.169	73.151
17.5337	45.288	73.251
17.5832	45.406	73.351
17.6327	45.524	73.451
17.6822	45.643	73.551
17.7318	45.760	73.651
17.7813	45.878	73.750
17.8308	45.996	73.850
17.8803	46.113	73.948
17.9299	46.230	74.047
17.9794	46.347	74.146
18.0289	46.464	74.244
18.0784	46.580	74.342
18.1280	46.697	74.440
18.1775	46.813	74.537
18.2270	46.929	74.635
18.2765	47.044	74.732
18.3261	47.160	74.829
18.3756	47.275	74.926
18.4251	47.390	75.022
18.4746	47.505	75.118
18.5242	47.620	75.215
18.5737	47.735	75.310
18.6232	47.849	75.406
18.6727	47.963	75.502
18.7223	48.077	75.597
18.7718	48.191	75.692
18.8213	48.305	75.787
18.8708	48.418	75.881
18.9204	48.531	75.976
18.9699	48.645	76.070
19.0194	48.757	76.164
19.0689	48.870	76.258
19.1185	48.983	76.352
19.1680	49.095	76.445
19.2175	49.207	76.539
19.2670	49.319	76.632
19.3166	49.431	76.725
19.3661	49.542	76.817
19.4156	49.654	76.910
19.4651	49.765	77.002
19.5147	49.876	77.094
19.5642	49.987	77.186
19.6137	50.098	77.278
19.6632	50.208	77.370
19.7128	50.319	77.461
19.7623	50.429	77.552
19.8118	50.539	77.643
19.8613	50.649	77.734
19.9109	50.758	77.825
19.9604	50.868	77.916
