Material: inorganic / Ir / Schmitt-MS
Optical constants. P. Schmitt, N. Felde, T. Doehring, M. Stollenwerk, I. Uschmann, K. Hanemann, M. Siegler, G. Klemm, N. Gratzke, A. Tuennermann, S. Schwinde, S. Schroeder, A. Szeghalmi. Optical, structural, and functional properties of highly reflective and stable iridium mirror coatings for infrared applications, Opt. Mater. Express 12, 545-559 (2022)(See supplementary materials for numerical data. High-resolution data kindly provided by Paul Schmitt.)
Comments: Iridium coating deposited by magnetron sputtering (MS).
Specs: {"n_absolute": true, "wavelength_vacuum": true, "film_thickness": "78 nm", "substrate": "Si", "deposition_method": "MS"}
wavelength (um)	n	k
0.2000	0.976	2.036
0.2495	1.166	2.917
0.2990	1.745	3.339
0.3486	1.829	3.563
0.3981	1.990	3.993
0.4476	2.172	4.369
0.4971	2.375	4.753
0.5467	2.614	5.094
0.5962	2.852	5.373
0.6457	3.055	5.606
0.6952	3.214	5.820
0.7448	3.340	6.038
0.7943	3.445	6.264
0.8438	3.539	6.500
0.8933	3.626	6.741
0.9429	3.709	6.986
0.9924	3.788	7.233
1.0419	3.863	7.482
1.0914	3.936	7.733
1.1410	4.005	7.985
1.1905	4.071	8.238
1.2400	4.135	8.494
1.2895	4.197	8.751
1.3391	4.257	9.009
1.3886	4.316	9.270
1.4381	4.374	9.533
1.4876	4.432	9.798
1.5372	4.489	10.065
1.5867	4.546	10.334
1.6362	4.604	10.605
1.6857	4.662	10.877
1.7353	4.721	11.151
1.7848	4.782	11.427
1.8343	4.843	11.703
1.8838	4.907	11.982
1.9334	4.971	12.261
1.9829	5.038	12.541
2.0324	5.107	12.822
2.0819	5.177	13.103
2.1315	5.250	13.385
2.1810	5.325	13.667
2.2305	5.402	13.949
2.2800	5.481	14.231
2.3296	5.563	14.513
2.3791	5.646	14.795
2.4286	5.732	15.077
2.4781	5.820	15.358
2.5277	5.910	15.638
2.5772	6.003	15.918
2.6267	6.097	16.197
2.6762	6.194	16.474
2.7258	6.293	16.751
2.7753	6.394	17.027
2.8248	6.496	17.302
2.8743	6.601	17.576
2.9239	6.708	17.848
2.9734	6.816	18.119
3.0229	6.926	18.389
3.0724	7.038	18.657
3.1220	7.152	18.924
3.1715	7.267	19.189
3.2210	7.384	19.453
3.2705	7.503	19.715
3.3201	7.623	19.976
3.3696	7.744	20.235
3.4191	7.867	20.492
3.4686	7.991	20.748
3.5182	8.116	21.002
3.5677	8.243	21.254
3.6172	8.371	21.505
3.6667	8.500	21.754
3.7163	8.630	22.001
3.7658	8.761	22.246
3.8153	8.893	22.490
3.8648	9.026	22.732
3.9144	9.160	22.972
3.9639	9.295	23.211
4.0134	9.431	23.447
4.0629	9.567	23.682
4.1125	9.705	23.915
4.1620	9.843	24.147
4.2115	9.982	24.376
4.2610	10.121	24.604
4.3106	10.261	24.831
4.3601	10.401	25.055
4.4096	10.543	25.278
4.4591	10.684	25.499
4.5087	10.826	25.719
4.5582	10.969	25.936
4.6077	11.112	26.152
4.6572	11.255	26.367
4.7068	11.399	26.580
4.7563	11.543	26.791
4.8058	11.688	27.000
4.8553	11.832	27.208
4.9049	11.977	27.414
4.9544	12.123	27.619
5.0039	12.268	27.822
5.0534	12.414	28.024
5.1030	12.559	28.224
5.1525	12.705	28.422
5.2020	12.852	28.619
5.2515	12.998	28.815
5.3011	13.144	29.009
5.3506	13.290	29.201
5.4001	13.437	29.392
5.4496	13.583	29.582
5.4991	13.730	29.770
5.5487	13.876	29.957
5.5982	14.023	30.143
5.6477	14.169	30.327
5.6972	14.316	30.509
5.7468	14.462	30.691
5.7963	14.608	30.871
5.8458	14.755	31.049
5.8953	14.901	31.227
5.9449	15.047	31.403
5.9944	15.193	31.577
6.0439	15.338	31.751
6.0934	15.484	31.923
6.1430	15.630	32.094
6.1925	15.775	32.264
6.2420	15.920	32.433
6.2915	16.065	32.600
6.3411	16.210	32.766
6.3906	16.355	32.931
6.4401	16.499	33.095
6.4896	16.643	33.258
6.5392	16.787	33.420
6.5887	16.931	33.580
6.6382	17.075	33.740
6.6877	17.218	33.898
6.7373	17.361	34.055
6.7868	17.504	34.212
6.8363	17.646	34.367
6.8858	17.789	34.521
6.9354	17.931	34.674
6.9849	18.073	34.826
7.0344	18.214	34.978
7.0839	18.355	35.128
7.1335	18.496	35.277
7.1830	18.637	35.425
7.2325	18.777	35.573
7.2820	18.917	35.719
7.3316	19.057	35.864
7.3811	19.197	36.009
7.4306	19.336	36.153
7.4801	19.475	36.295
7.5297	19.613	36.437
7.5792	19.751	36.578
7.6287	19.889	36.719
7.6782	20.027	36.858
7.7278	20.164	36.996
7.7773	20.301	37.134
7.8268	20.438	37.271
7.8763	20.574	37.407
7.9259	20.710	37.542
7.9754	20.845	37.677
8.0249	20.981	37.810
8.0744	21.116	37.943
8.1240	21.250	38.076
8.1735	21.384	38.207
8.2230	21.518	38.338
8.2725	21.652	38.468
8.3221	21.785	38.597
8.3716	21.918	38.725
8.4211	22.051	38.853
8.4706	22.183	38.980
8.5202	22.315	39.107
8.5697	22.446	39.233
8.6192	22.578	39.358
8.6687	22.709	39.482
8.7183	22.839	39.606
8.7678	22.969	39.729
8.8173	23.099	39.852
8.8668	23.229	39.974
8.9164	23.358	40.095
8.9659	23.487	40.215
9.0154	23.615	40.336
9.0649	23.743	40.455
9.1145	23.871	40.574
9.1640	23.998	40.692
9.2135	24.126	40.810
9.2630	24.252	40.927
9.3126	24.379	41.043
9.3621	24.505	41.159
9.4116	24.631	41.275
9.4611	24.756	41.390
9.5107	24.881	41.504
9.5602	25.006	41.618
9.6097	25.130	41.731
9.6592	25.254	41.844
9.7088	25.378	41.956
9.7583	25.502	42.068
9.8078	25.625	42.179
9.8573	25.747	42.290
9.9069	25.870	42.400
9.9564	25.992	42.510
10.0059	26.114	42.619
10.0554	26.235	42.728
10.1050	26.356	42.836
10.1545	26.477	42.944
10.2040	26.597	43.051
10.2535	26.718	43.158
10.3031	26.837	43.265
10.3526	26.957	43.371
10.4021	27.076	43.476
10.4516	27.195	43.582
10.5012	27.314	43.686
10.5507	27.432	43.791
10.6002	27.550	43.894
10.6497	27.667	43.998
10.6992	27.785	44.101
10.7488	27.902	44.204
10.7983	28.018	44.306
10.8478	28.135	44.408
10.8973	28.251	44.509
10.9469	28.366	44.610
10.9964	28.482	44.711
11.0459	28.597	44.811
11.0954	28.712	44.911
11.1450	28.826	45.011
11.1945	28.940	45.110
11.2440	29.054	45.208
11.2935	29.168	45.307
11.3431	29.281	45.405
11.3926	29.394	45.503
11.4421	29.507	45.600
11.4916	29.620	45.697
11.5412	29.732	45.794
11.5907	29.844	45.890
11.6402	29.955	45.986
11.6897	30.067	46.082
11.7393	30.178	46.177
11.7888	30.288	46.272
11.8383	30.399	46.367
11.8878	30.509	46.461
11.9374	30.619	46.555
11.9869	30.728	46.649
12.0364	30.838	46.742
12.0859	30.947	46.835
12.1355	31.056	46.928
12.1850	31.164	47.020
12.2345	31.272	47.112
12.2840	31.380	47.204
12.3336	31.488	47.296
12.3831	31.596	47.387
12.4326	31.703	47.478
12.4821	31.810	47.569
12.5317	31.916	47.659
12.5812	32.023	47.749
12.6307	32.129	47.839
12.6802	32.235	47.929
12.7298	32.340	48.018
12.7793	32.446	48.107
12.8288	32.551	48.196
12.8783	32.655	48.284
12.9279	32.760	48.372
12.9774	32.864	48.460
13.0269	32.968	48.548
13.0764	33.072	48.636
13.1260	33.176	48.723
13.1755	33.279	48.810
13.2250	33.382	48.896
13.2745	33.485	48.983
13.3241	33.588	49.069
13.3736	33.690	49.155
13.4231	33.792	49.241
13.4726	33.894	49.326
13.5222	33.996	49.411
13.5717	34.097	49.496
13.6212	34.198	49.581
13.6707	34.299	49.666
13.7203	34.400	49.750
13.7698	34.500	49.834
13.8193	34.600	49.918
13.8688	34.700	50.001
13.9184	34.800	50.085
13.9679	34.900	50.168
14.0174	34.999	50.251
14.0669	35.098	50.334
14.1165	35.197	50.416
14.1660	35.296	50.499
14.2155	35.394	50.581
14.2650	35.492	50.663
14.3146	35.590	50.744
14.3641	35.688	50.826
14.4136	35.785	50.907
14.4631	35.883	50.988
14.5127	35.980	51.069
14.5622	36.077	51.150
14.6117	36.173	51.230
14.6612	36.270	51.310
14.7108	36.366	51.391
14.7603	36.462	51.470
14.8098	36.558	51.550
14.8593	36.654	51.630
14.9089	36.749	51.709
14.9584	36.844	51.788
15.0079	36.939	51.867
15.0574	37.034	51.946
15.1070	37.129	52.024
15.1565	37.223	52.103
15.2060	37.317	52.181
15.2555	37.411	52.259
15.3051	37.505	52.337
15.3546	37.599	52.415
15.4041	37.692	52.492
15.4536	37.785	52.570
15.5032	37.878	52.647
15.5527	37.971	52.724
15.6022	38.064	52.801
15.6517	38.156	52.877
15.7013	38.248	52.954
15.7508	38.340	53.030
15.8003	38.432	53.106
15.8498	38.524	53.182
15.8993	38.615	53.258
15.9489	38.707	53.334
15.9984	38.798	53.409
16.0479	38.889	53.485
16.0974	38.979	53.560
16.1470	39.070	53.635
16.1965	39.160	53.710
16.2460	39.251	53.784
16.2955	39.341	53.859
16.3451	39.430	53.933
16.3946	39.520	54.008
16.4441	39.610	54.082
16.4936	39.699	54.156
16.5432	39.788	54.230
16.5927	39.877	54.303
16.6422	39.966	54.377
16.6917	40.054	54.450
16.7413	40.143	54.523
16.7908	40.231	54.597
16.8403	40.319	54.669
16.8898	40.407	54.742
16.9394	40.495	54.815
16.9889	40.582	54.888
17.0384	40.670	54.960
17.0879	40.757	55.032
17.1375	40.844	55.104
17.1870	40.931	55.176
17.2365	41.018	55.248
17.2860	41.104	55.320
17.3356	41.191	55.391
17.3851	41.277	55.463
17.4346	41.363	55.534
17.4841	41.449	55.605
17.5337	41.535	55.676
17.5832	41.621	55.747
17.6327	41.706	55.818
17.6822	41.791	55.889
17.7318	41.876	55.959
17.7813	41.961	56.030
17.8308	42.046	56.100
17.8803	42.131	56.170
17.9299	42.216	56.240
17.9794	42.300	56.310
18.0289	42.384	56.380
18.0784	42.468	56.450
18.1280	42.552	56.519
18.1775	42.636	56.589
18.2270	42.720	56.658
18.2765	42.803	56.727
18.3261	42.886	56.796
18.3756	42.970	56.865
18.4251	43.053	56.934
18.4746	43.135	57.003
18.5242	43.218	57.071
18.5737	43.301	57.140
18.6232	43.383	57.208
18.6727	43.466	57.277
18.7223	43.548	57.345
18.7718	43.630	57.413
18.8213	43.712	57.481
18.8708	43.793	57.549
18.9204	43.875	57.616
18.9699	43.956	57.684
19.0194	44.038	57.751
19.0689	44.119	57.819
19.1185	44.200	57.886
19.1680	44.281	57.953
19.2175	44.362	58.020
19.2670	44.442	58.087
19.3166	44.523	58.154
19.3661	44.603	58.221
19.4156	44.683	58.288
19.4651	44.764	58.354
19.5147	44.844	58.421
19.5642	44.923	58.487
19.6137	45.003	58.553
19.6632	45.083	58.619
19.7128	45.162	58.685
19.7623	45.241	58.751
19.8118	45.321	58.817
19.8613	45.400	58.883
19.9109	45.479	58.948
19.9604	45.557	59.014
