Material: glass / hoya / BACD15
Optical constants. HOYA Zemax catalog 2017-04-01 (obtained from http://www.hoya-opticalworld.com)
Comments: General glass Type
Specs: {"n_absolute": false, "wavelength_vacuum": false, "temperature": "20.0 °C", "thermal_dispersion": [{"type": "Schott formula", "coefficients": "2.9692e-06 0.0 0.0 0.0 0.0 0.0"}], "nd": 1.62299, "Vd": 58.12, "glass_code": 623581, "density": "3.55 g/cm3", "thermal_expansion": [{"temperature_range": "-30 70 °C", "coefficient": "6.1e-06 K-1"}, {"temperature_range": "20 300 °C", "coefficient": "7.5e-06 K-1"}], "dPgF": 0.0008, "climatic_resistance": 2.0, "stain_resistance": 4.0, "acid_resistance": 4.0}
Dispersion formula 3, range 0.36501 1.01398 um, coefficients 2.5864832 -0.0080357829 2 0.018080573 -2 -0.00045974172 -4 8.8484321e-05 -6 -3.7544765e-06 -8
wavelength (um)	k
0.290	1.0628E-05
0.300	6.0297E-06
0.310	3.7352E-06
0.320	2.1492E-06
0.330	1.2553E-06
0.340	7.0716E-07
0.350	3.8787E-07
0.360	2.1716E-07
0.370	1.2326E-07
0.380	7.6560E-08
0.390	4.3756E-08
0.400	2.8778E-08
0.420	2.0114E-08
0.440	1.7551E-08
0.460	1.4672E-08
0.480	1.1476E-08
0.500	1.1955E-08
0.550	8.7623E-09
0.600	1.4345E-08
0.650	1.5541E-08
0.700	1.6736E-08
0.750	1.1949E-08
0.780	1.2427E-08
0.800	1.9127E-08
0.830	1.9845E-08
0.850	2.7111E-08
0.900	2.8705E-08
0.950	3.0300E-08
1.000	3.1895E-08
1.050	3.3490E-08
1.060	3.3809E-08
1.100	2.6300E-08
1.200	2.8691E-08
1.300	3.1082E-08
1.400	1.7969E-07
1.500	8.3850E-08
1.550	8.6645E-08
