Material: glass / hoya / BACED5
Optical constants. HOYA Zemax catalog 2017-04-01 (obtained from http://www.hoya-opticalworld.com)
Comments: General glass Type
Specs: {"n_absolute": false, "wavelength_vacuum": false, "temperature": "20.0 °C", "thermal_dispersion": [{"type": "Schott formula", "coefficients": "4.34101e-06 0.0 0.0 0.0 0.0 0.0"}], "nd": 1.65844, "Vd": 50.86, "glass_code": 658509, "density": "3.64 g/cm3", "thermal_expansion": [{"temperature_range": "-30 70 °C", "coefficient": "7.2e-06 K-1"}, {"temperature_range": "20 300 °C", "coefficient": "8.9e-06 K-1"}], "dPgF": 0.0008, "climatic_resistance": 1.0, "stain_resistance": 3.0, "acid_resistance": 3.0}
Dispersion formula 3, range 0.36501 1.01398 um, coefficients 2.6934245 -0.008637014 2 0.02049645 -2 -9.3205453e-05 -4 6.2709747e-05 -6 -2.0834652e-06 -8
wavelength (um)	k
0.330	8.5194E-06
0.340	3.8839E-06
0.350	1.8053E-06
0.360	8.3563E-07
0.370	4.0328E-07
0.380	2.0971E-07
0.390	1.2023E-07
0.400	6.7557E-08
0.420	4.0350E-08
0.440	3.5190E-08
0.460	2.9402E-08
0.480	1.9146E-08
0.500	1.1955E-08
0.550	4.3790E-09
0.600	1.4345E-08
0.650	2.5928E-08
0.700	1.1152E-08
0.750	1.1949E-08
0.780	1.2427E-08
0.800	1.2745E-08
0.830	1.3223E-08
0.850	6.7675E-09
0.900	1.4338E-08
0.950	1.5135E-08
1.000	1.5931E-08
1.050	1.6728E-08
1.060	1.6887E-08
1.100	8.7579E-09
1.200	9.5541E-09
1.300	2.0711E-08
1.400	5.5844E-08
1.500	5.9833E-08
1.550	6.1827E-08
