Material: glass / hoya / E-ADF10
Optical constants. HOYA Zemax catalog 2017-04-01 (obtained from http://www.hoya-opticalworld.com)
Comments: Not in a position to accept new order because of discontinuation.
Specs: {"n_absolute": false, "wavelength_vacuum": false, "temperature": "20.0 °C", "thermal_dispersion": [{"type": "Schott formula", "coefficients": "9.22096e-06 0.0 0.0 0.0 0.0 0.0"}], "nd": 1.6131, "Vd": 44.36, "glass_code": 613444, "glass_status": "special", "density": "3.04 g/cm3", "thermal_expansion": [{"temperature_range": "-30 70 °C", "coefficient": "4.7e-06 K-1"}, {"temperature_range": "20 300 °C", "coefficient": "6e-06 K-1"}], "dPgF": -0.008, "climatic_resistance": 3.0, "acid_resistance": 6.0}
Dispersion formula 3, range 0.36501 1.01398 um, coefficients 2.5528983 -0.015709364 2 0.015647688 -2 0.0014461641 -4 -0.00014458879 -6 9.5275733e-06 -8
wavelength (um)	k
0.340	6.5150E-06
0.350	2.6949E-06
0.360	1.1473E-06
0.370	5.8431E-07
0.380	3.4222E-07
0.390	2.1856E-07
0.400	1.4990E-07
0.420	8.4619E-08
0.440	5.6476E-08
0.460	4.0489E-08
0.480	3.0681E-08
0.500	2.3945E-08
0.550	1.7542E-08
0.600	1.4345E-08
0.650	1.5541E-08
0.700	1.6736E-08
0.750	1.7932E-08
0.780	1.8649E-08
0.800	1.9127E-08
0.830	1.9845E-08
0.850	1.3542E-08
0.900	2.1518E-08
0.950	3.7894E-08
1.000	3.9889E-08
1.050	3.3490E-08
1.060	4.2282E-08
1.100	4.3877E-08
1.200	4.7866E-08
1.300	8.3093E-08
1.400	8.5652E-07
1.500	5.6211E-07
1.550	4.6503E-07
