Material: glass / hoya / E-ADF50
Optical constants. HOYA Zemax catalog 2017-04-01 (obtained from http://www.hoya-opticalworld.com)
Comments: Not in a position to accept new order because of discontinuation.
Specs: {"n_absolute": false, "wavelength_vacuum": false, "temperature": "20.0 °C", "thermal_dispersion": [{"type": "Schott formula", "coefficients": "1.08065e-05 0.0 0.0 0.0 0.0 0.0"}], "nd": 1.65412, "Vd": 39.62, "glass_code": 654396, "glass_status": "special", "density": "3.38 g/cm3", "thermal_expansion": [{"temperature_range": "-30 70 °C", "coefficient": "5.1e-06 K-1"}, {"temperature_range": "20 300 °C", "coefficient": "6.5e-06 K-1"}], "dPgF": -0.0033, "climatic_resistance": 2.0, "acid_resistance": 6.0}
Dispersion formula 3, range 0.36501 1.01398 um, coefficients 2.6680422 -0.013184258 2 0.023930479 -2 0.00023928655 -4 5.0697941e-05 -6 9.1240958e-07 -8
wavelength (um)	k
0.350	6.7066E-06
0.360	2.7719E-06
0.370	1.3604E-06
0.380	7.1281E-07
0.390	4.3220E-07
0.400	3.0370E-07
0.420	1.7144E-07
0.440	1.1026E-07
0.460	7.3953E-08
0.480	4.9982E-08
0.500	3.1959E-08
0.550	2.1939E-08
0.600	2.3933E-08
0.650	2.5928E-08
0.700	3.3523E-08
0.750	4.1925E-08
0.780	4.3602E-08
0.800	4.4720E-08
0.830	4.6397E-08
0.850	5.4330E-08
0.900	5.0310E-08
0.950	6.0722E-08
1.000	5.5900E-08
1.050	5.0285E-08
1.060	4.2282E-08
1.100	5.2679E-08
1.200	4.7866E-08
1.300	7.2670E-08
1.400	5.3632E-07
1.500	4.0055E-07
1.550	3.5029E-07
