Material: glass / hoya / E-BACED20
Optical constants. HOYA Zemax catalog 2017-04-01 (obtained from http://www.hoya-opticalworld.com)
Comments: Not in a position to accept new order because of discontinuation.
Specs: {"n_absolute": false, "wavelength_vacuum": false, "temperature": "20.0 °C", "thermal_dispersion": [{"type": "Schott formula", "coefficients": "3.63335e-06 0.0 0.0 0.0 0.0 0.0"}], "nd": 1.6485, "Vd": 53.03, "glass_code": 649530, "glass_status": "special", "density": "3.68 g/cm3", "thermal_expansion": [{"temperature_range": "-30 70 °C", "coefficient": "7e-06 K-1"}, {"temperature_range": "20 300 °C", "coefficient": "8.2e-06 K-1"}], "dPgF": -0.0008, "climatic_resistance": 1.0, "stain_resistance": 2.0, "acid_resistance": 3.0}
Dispersion formula 3, range 0.36501 1.01398 um, coefficients 2.6667537 -0.0097319259 2 0.017436284 -2 0.00047558015 -4 -1.7144989e-05 -6 1.1049589e-06 -8
wavelength (um)	k
0.290	1.0628E-05
0.300	7.6845E-06
0.310	4.8502E-06
0.320	2.9015E-06
0.330	1.6672E-06
0.340	9.6503E-07
0.350	5.5273E-07
0.360	2.9230E-07
0.370	1.6656E-07
0.380	1.0460E-07
0.390	6.9040E-08
0.400	5.1341E-08
0.420	3.3591E-08
0.440	2.8124E-08
0.460	2.2030E-08
0.480	1.9146E-08
0.500	1.5947E-08
0.550	1.3150E-08
0.600	1.4345E-08
0.650	1.5541E-08
0.700	1.6736E-08
0.750	1.7932E-08
0.780	1.2427E-08
0.800	1.2745E-08
0.830	1.3223E-08
0.850	1.3542E-08
0.900	1.4338E-08
0.950	1.5135E-08
1.000	1.5931E-08
1.050	1.6728E-08
1.060	2.5344E-08
1.100	2.6300E-08
1.200	2.8691E-08
1.300	3.1082E-08
1.400	6.7046E-08
1.500	5.9833E-08
1.550	6.1827E-08
