Material: glass / hoya / E-CF6
Optical constants. HOYA Zemax catalog 2017-04-01 (obtained from http://www.hoya-opticalworld.com)
Comments: General glass Type
Specs: {"n_absolute": false, "wavelength_vacuum": false, "temperature": "20.0 °C", "thermal_dispersion": [{"type": "Schott formula", "coefficients": "-1.62453e-06 0.0 0.0 0.0 0.0 0.0"}], "nd": 1.51742, "Vd": 52.15, "glass_code": 517522, "density": "2.43 g/cm3", "thermal_expansion": [{"temperature_range": "-30 70 °C", "coefficient": "8.2e-06 K-1"}, {"temperature_range": "20 300 °C", "coefficient": "9.2e-06 K-1"}], "dPgF": 0.0045, "climatic_resistance": 2.0, "stain_resistance": 1.0, "acid_resistance": 1.0}
Dispersion formula 3, range 0.36501 1.01398 um, coefficients 2.2668912 -0.0093866212 2 0.012174195 -2 0.0005076903 -4 -3.3573414e-05 -6 2.9059013e-06 -8
wavelength (um)	k
0.340	5.1329E-06
0.350	1.6199E-06
0.360	4.7571E-07
0.370	1.8532E-07
0.380	1.0147E-07
0.390	6.9040E-08
0.400	5.7818E-08
0.420	5.0514E-08
0.440	4.9366E-08
0.460	5.1610E-08
0.480	4.2250E-08
0.500	3.9989E-08
0.550	1.7542E-08
0.600	1.9137E-08
0.650	3.1129E-08
0.700	2.2326E-08
0.750	1.1949E-08
0.780	1.2427E-08
0.800	1.2745E-08
0.830	1.3223E-08
0.850	1.3542E-08
0.900	1.4338E-08
0.950	1.5135E-08
1.000	1.5931E-08
1.050	1.6728E-08
1.060	1.6887E-08
1.100	1.7525E-08
1.200	1.9118E-08
1.300	4.1463E-08
1.400	5.5844E-08
1.500	5.9833E-08
1.550	8.6645E-08
