Material: glass / hoya / E-F2
Optical constants. HOYA Zemax catalog 2017-04-01 (obtained from http://www.hoya-opticalworld.com)
Comments: General glass Type
Specs: {"n_absolute": false, "wavelength_vacuum": false, "temperature": "20.0 °C", "thermal_dispersion": [{"type": "Schott formula", "coefficients": "1.38841e-06 0.0 0.0 0.0 0.0 0.0"}], "nd": 1.62004, "Vd": 36.3, "glass_code": 620363, "density": "2.67 g/cm3", "thermal_expansion": [{"temperature_range": "-30 70 °C", "coefficient": "8.3e-06 K-1"}, {"temperature_range": "20 300 °C", "coefficient": "1.02e-05 K-1"}], "dPgF": 0.0043, "climatic_resistance": 1.0, "stain_resistance": 1.0, "acid_resistance": 1.0}
Dispersion formula 3, range 0.36501 1.01398 um, coefficients 2.5561822 -0.010237038 2 0.022470348 -2 0.00084580679 -4 -3.3087089e-05 -6 7.1054919e-06 -8
wavelength (um)	k
0.360	5.4927E-06
0.370	1.8034E-06
0.380	6.6722E-07
0.390	2.9270E-07
0.400	1.5658E-07
0.420	8.8048E-08
0.440	6.7167E-08
0.460	6.6490E-08
0.480	5.7730E-08
0.500	4.4010E-08
0.550	2.1939E-08
0.600	2.3933E-08
0.650	3.6335E-08
0.700	3.3523E-08
0.750	1.1949E-08
0.780	1.2427E-08
0.800	1.2745E-08
0.830	1.3223E-08
0.850	1.3542E-08
0.900	1.4338E-08
0.950	1.5135E-08
1.000	1.5931E-08
1.050	1.6728E-08
1.060	1.6887E-08
1.100	8.7579E-09
1.200	9.5541E-09
1.300	1.0350E-08
1.400	7.8260E-08
1.500	5.9833E-08
1.550	6.1827E-08
