Material: glass / hoya / E-F5
Optical constants. HOYA Zemax catalog 2017-04-01 (obtained from http://www.hoya-opticalworld.com)
Comments: General glass Type
Specs: {"n_absolute": false, "wavelength_vacuum": false, "temperature": "20.0 °C", "thermal_dispersion": [{"type": "Schott formula", "coefficients": "2.63967e-06 0.0 0.0 0.0 0.0 0.0"}], "nd": 1.60342, "Vd": 38.01, "glass_code": 603380, "density": "2.63 g/cm3", "thermal_expansion": [{"temperature_range": "-30 70 °C", "coefficient": "8e-06 K-1"}, {"temperature_range": "20 300 °C", "coefficient": "9.5e-06 K-1"}], "dPgF": 0.0029, "climatic_resistance": 1.0, "stain_resistance": 1.0, "acid_resistance": 1.0}
Dispersion formula 3, range 0.36501 1.01398 um, coefficients 2.5095673 -0.010862661 2 0.019894774 -2 0.0010137134 -4 -6.2697117e-05 -6 7.5080045e-06 -8
wavelength (um)	k
0.360	4.7576E-06
0.370	1.6345E-06
0.380	6.0010E-07
0.390	2.7230E-07
0.400	1.3990E-07
0.420	7.4350E-08
0.440	5.6476E-08
0.460	5.5324E-08
0.480	4.6114E-08
0.500	3.5972E-08
0.550	1.7542E-08
0.600	1.4345E-08
0.650	3.1129E-08
0.700	2.2326E-08
0.750	5.9713E-09
0.780	6.2101E-09
0.800	6.3694E-09
0.830	6.6082E-09
0.850	6.7675E-09
0.900	7.1656E-09
0.950	1.5135E-08
1.000	1.5931E-08
1.050	1.6728E-08
1.060	1.6887E-08
1.100	1.7525E-08
1.200	1.9118E-08
1.300	2.0711E-08
1.400	1.1197E-07
1.500	7.1835E-08
1.550	7.4230E-08
