Material: glass / hoya / E-FDS1-W
Optical constants. HOYA Zemax catalog 2017-04-01 (obtained from http://www.hoya-opticalworld.com)
Comments: Recommended glass type
Specs: {"n_absolute": false, "wavelength_vacuum": false, "temperature": "20.0 °C", "thermal_dispersion": [{"type": "Schott formula", "coefficients": "-4.37e-06 1.1e-08 -2.29e-11 1.06e-06 1.516e-09 0.311"}], "nd": 1.92286, "Vd": 20.88, "glass_code": 923209, "glass_status": "standard", "density": "3.94 g/cm3", "thermal_expansion": [{"temperature_range": "-30 70 °C", "coefficient": "6e-06 K-1"}, {"temperature_range": "20 300 °C", "coefficient": "7.5e-06 K-1"}], "dPgF": 0.0282, "climatic_resistance": 1.0, "stain_resistance": 2.0, "acid_resistance": 1.0}
Dispersion formula 3, range 0.36501 1.01398 um, coefficients 3.5044639 -0.020333833 2 0.0538027 -2 0.0062874192 -4 -0.00056922176 -6 7.3559387e-05 -8
wavelength (um)	k
0.380	9.8103E-06
0.390	3.2317E-06
0.400	1.0902E-06
0.420	2.5696E-07
0.440	1.3201E-07
0.460	8.8925E-08
0.480	6.5494E-08
0.500	4.4010E-08
0.550	1.7542E-08
0.600	9.5589E-09
0.650	1.0355E-08
0.700	1.1152E-08
0.750	5.9713E-09
0.780	6.2101E-09
0.800	6.3694E-09
0.830	1.3223E-08
0.850	1.3542E-08
0.900	1.4338E-08
0.950	1.5135E-08
1.000	1.5931E-08
1.050	8.3598E-09
1.060	1.6887E-08
1.100	8.7579E-09
1.200	1.9118E-08
1.300	3.1082E-08
1.400	1.1197E-07
1.500	2.0467E-07
1.550	1.8642E-07
