Material: glass / hoya / FD140
Optical constants. HOYA Zemax catalog 2017-04-01 (obtained from http://www.hoya-opticalworld.com)
Comments: General glass Type
Specs: {"n_absolute": false, "wavelength_vacuum": false, "temperature": "20.0 °C", "thermal_dispersion": [{"type": "Schott formula", "coefficients": "8.31157e-07 0.0 0.0 0.0 0.0 0.0"}], "nd": 1.76182, "Vd": 26.61, "glass_code": 762266, "density": "3.14 g/cm3", "thermal_expansion": [{"temperature_range": "-30 70 °C", "coefficient": "8.4e-06 K-1"}, {"temperature_range": "20 300 °C", "coefficient": "1.02e-05 K-1"}], "dPgF": 0.0118, "climatic_resistance": 1.0, "stain_resistance": 1.0, "acid_resistance": 1.0}
Dispersion formula 3, range 0.36501 1.01398 um, coefficients 2.9851294 -0.014237988 2 0.035496437 -2 0.0028457557 -4 -0.00019006799 -6 2.4309252e-05 -8
wavelength (um)	k
0.370	7.0573E-06
0.380	2.8319E-06
0.390	1.2755E-06
0.400	6.6290E-07
0.420	2.6418E-07
0.440	1.6489E-07
0.460	1.2662E-07
0.480	9.2791E-08
0.500	7.2272E-08
0.550	3.0745E-08
0.600	2.8734E-08
0.650	5.7213E-08
0.700	4.4743E-08
0.750	3.5918E-08
0.780	3.1113E-08
0.800	3.1911E-08
0.830	3.3107E-08
0.850	2.7111E-08
0.900	2.8705E-08
0.950	3.0300E-08
1.000	3.1895E-08
1.050	3.3490E-08
1.060	3.3809E-08
1.100	3.5084E-08
1.200	1.9118E-08
1.300	2.0711E-08
1.400	5.5844E-08
1.500	5.9833E-08
1.550	6.1827E-08
