Material: glass / hoya / FDS18
Optical constants. HOYA Zemax catalog 2017-04-01 (obtained from http://www.hoya-opticalworld.com)
Comments: General glass Type
Specs: {"n_absolute": false, "wavelength_vacuum": false, "temperature": "20.0 °C", "thermal_dispersion": [{"type": "Schott formula", "coefficients": "-2.60984e-06 0.0 0.0 0.0 0.0 0.0"}], "nd": 1.94595, "Vd": 17.98, "glass_code": 946180, "density": "3.51 g/cm3", "thermal_expansion": [{"temperature_range": "-30 70 °C", "coefficient": "5.7e-06 K-1"}, {"temperature_range": "20 300 °C", "coefficient": "7.1e-06 K-1"}], "dPgF": 0.0386, "climatic_resistance": 1.0, "stain_resistance": 1.0, "acid_resistance": 1.0}
Dispersion formula 3, range 0.36501 1.01398 um, coefficients 3.563784 -0.025449644 2 0.058401659 -2 0.0092310983 -4 -0.00095499727 -6 0.00011777456 -8
wavelength (um)	k
0.400	8.2878E-06
0.420	2.3774E-06
0.440	1.0401E-06
0.460	6.1651E-07
0.480	4.2800E-07
0.500	3.1881E-07
0.550	1.5140E-07
0.600	8.6727E-08
0.650	6.7684E-08
0.700	4.4743E-08
0.750	3.5918E-08
0.780	3.1113E-08
0.800	2.5516E-08
0.830	6.6082E-09
0.850	1.3542E-08
0.900	2.8705E-08
0.950	5.3105E-08
1.000	6.3918E-08
1.050	8.3977E-08
1.060	8.4777E-08
1.100	8.7976E-08
1.200	1.1528E-07
1.300	1.4585E-07
1.400	2.0236E-07
1.500	2.5334E-07
1.550	2.4919E-07
