Material: glass / hoya / FDS90-SG
Optical constants. HOYA Zemax catalog 2017-04-01 (obtained from http://www.hoya-opticalworld.com)
Comments: Recommended glass type
Specs: {"n_absolute": false, "wavelength_vacuum": false, "temperature": "20.0 °C", "thermal_dispersion": [{"type": "Schott formula", "coefficients": "-4.62e-06 1.29e-08 -2.11e-11 1.04e-06 1.27e-09 0.296"}], "nd": 1.84666, "Vd": 23.78, "glass_code": 847238, "glass_status": "standard", "density": "3.5 g/cm3", "thermal_expansion": [{"temperature_range": "-30 70 °C", "coefficient": "8.7e-06 K-1"}, {"temperature_range": "20 300 °C", "coefficient": "1.07e-05 K-1"}], "dPgF": 0.0137, "climatic_resistance": 2.0, "stain_resistance": 1.0, "acid_resistance": 1.0}
Dispersion formula 3, range 0.36501 1.01398 um, coefficients 3.2606321 -0.017780398 2 0.040902938 -2 0.0056076934 -4 -0.00056434039 -6 5.4763391e-05 -8
wavelength (um)	k
0.370	6.2184E-06
0.380	2.6595E-06
0.390	1.1696E-06
0.400	6.1234E-07
0.420	2.7505E-07
0.440	1.7224E-07
0.460	1.2662E-07
0.480	9.6707E-08
0.500	6.8222E-08
0.550	2.1939E-08
0.600	1.9137E-08
0.650	3.6335E-08
0.700	3.3523E-08
0.750	2.9916E-08
0.780	1.8649E-08
0.800	1.9127E-08
0.830	1.9845E-08
0.850	1.3542E-08
0.900	1.4338E-08
0.950	1.5135E-08
1.000	7.9617E-09
1.050	8.3598E-09
1.060	8.4394E-09
1.100	8.7579E-09
1.200	9.5541E-09
1.300	1.0350E-08
1.400	4.4653E-08
1.500	7.1835E-08
1.550	8.6645E-08
