Material: glass / hoya / FDS90(P)
Optical constants. HOYA Zemax catalog 2017-04-01 (obtained from http://www.hoya-opticalworld.com)
Comments: General glass Type
Specs: {"n_absolute": false, "wavelength_vacuum": false, "temperature": "20.0 °C", "thermal_dispersion": [{"type": "Schott formula", "coefficients": "-4.62e-06 1.29e-08 -2.11e-11 1.04e-06 1.27e-09 0.296"}], "nd": 1.84666, "Vd": 23.88, "glass_code": 847239, "density": "3.5 g/cm3", "thermal_expansion": [{"temperature_range": "-30 70 °C", "coefficient": "8.7e-06 K-1"}, {"temperature_range": "20 300 °C", "coefficient": "1.07e-05 K-1"}], "dPgF": 0.0137, "climatic_resistance": 2.0, "stain_resistance": 1.0, "acid_resistance": 1.0}
Dispersion formula 3, range 0.36501 1.01398 um, coefficients 3.2565619 -0.015803965 2 0.044330322 -2 0.0043620098 -4 -0.00036912261 -6 4.2999682e-05 -8
wavelength (um)	k
0.370	7.1228E-06
0.380	2.8242E-06
0.390	1.3227E-06
0.400	7.6649E-07
0.420	3.7076E-07
0.440	2.2784E-07
0.460	1.7238E-07
0.480	1.2423E-07
0.500	9.2583E-08
0.550	4.3988E-08
0.600	4.3166E-08
0.650	6.2446E-08
0.700	4.4743E-08
0.750	2.9916E-08
0.780	1.8649E-08
0.800	1.9127E-08
0.830	1.9845E-08
0.850	1.3542E-08
0.900	1.4338E-08
0.950	1.5135E-08
1.000	7.9617E-09
1.050	8.3598E-09
1.060	8.4394E-09
1.100	8.7579E-09
1.200	9.5541E-09
1.300	1.0350E-08
1.400	4.4653E-08
1.500	7.1835E-08
1.550	8.6645E-08
