Material: glass / hoya / LAC14
Optical constants. HOYA Zemax catalog 2017-04-01 (obtained from http://www.hoya-opticalworld.com)
Comments: Recommended glass type
Specs: {"n_absolute": false, "wavelength_vacuum": false, "temperature": "20.0 °C", "thermal_dispersion": [{"type": "Schott formula", "coefficients": "3.05e-06 1.07e-08 -2.21e-11 4.35e-07 4.49e-10 0.185"}], "nd": 1.6968, "Vd": 55.46, "glass_code": 697555, "glass_status": "standard", "density": "3.67 g/cm3", "thermal_expansion": [{"temperature_range": "-30 70 °C", "coefficient": "5.6e-06 K-1"}, {"temperature_range": "20 300 °C", "coefficient": "7.2e-06 K-1"}], "dPgF": -0.0059, "climatic_resistance": 1.0, "acid_resistance": 4.0}
Dispersion formula 3, range 0.36501 1.01398 um, coefficients 2.8255229 -0.013632902 2 0.019791402 -2 1.5032564e-05 -4 4.0761368e-05 -6 -1.7527267e-06 -8
wavelength (um)	k
0.280	3.2650E-06
0.290	2.3322E-06
0.300	1.6981E-06
0.310	1.2519E-06
0.320	9.0463E-07
0.330	6.1238E-07
0.340	3.9865E-07
0.350	2.6268E-07
0.360	1.8031E-07
0.370	1.1101E-07
0.380	7.9663E-08
0.390	5.3213E-08
0.400	4.4878E-08
0.420	3.3591E-08
0.440	2.8124E-08
0.460	1.8349E-08
0.480	1.1476E-08
0.500	1.1955E-08
0.550	4.3790E-09
0.600	9.5589E-09
0.650	5.1751E-09
0.700	5.5732E-09
0.750	5.9713E-09
0.780	6.2101E-09
0.800	6.3694E-09
0.830	1.3223E-08
0.850	6.7675E-09
0.900	7.1656E-09
0.950	7.5636E-09
1.000	7.9617E-09
1.050	8.3598E-09
1.060	8.4394E-09
1.100	8.7579E-09
1.200	9.5541E-09
1.300	1.0350E-08
1.400	7.8260E-08
1.500	8.3850E-08
1.550	7.4230E-08
