Material: glass / hoya / M-FDS2
Optical constants. HOYA Zemax catalog 2017-04-01 (obtained from http://www.hoya-opticalworld.com)
Comments: Glass for molded optics lens
Specs: {"n_absolute": false, "wavelength_vacuum": false, "temperature": "20.0 °C", "thermal_dispersion": [{"type": "Schott formula", "coefficients": "2.17e-07 1.14e-08 -3.07e-11 1.84e-06 2.48e-09 0.308"}], "nd": 2.00178, "Vd": 19.32, "glass_status": "standard", "density": "5.09 g/cm3", "thermal_expansion": [{"temperature_range": "-30 70 °C", "coefficient": "7.9e-06 K-1"}, {"temperature_range": "20 300 °C", "coefficient": "1.01e-05 K-1"}], "dPgF": 0.0312, "climatic_resistance": 1.0, "stain_resistance": 1.0, "acid_resistance": 1.0}
Dispersion formula 3, range 0.36501 1.01398 um, coefficients 3.771581 -0.020445364 2 0.063942579 -2 0.008354547 -4 -0.00082031984 -6 0.00010279507 -8
wavelength (um)	k
0.400	1.2452E-05
0.420	3.6652E-06
0.440	1.5463E-06
0.460	8.5362E-07
0.480	5.4514E-07
0.500	3.7088E-07
0.550	1.2430E-07
0.600	4.3166E-08
0.650	3.1129E-08
0.700	1.6736E-08
0.750	5.9713E-09
0.780	6.2101E-09
0.800	6.3694E-09
0.830	1.9845E-08
0.850	1.3542E-08
0.900	7.1656E-09
0.950	7.5636E-09
1.000	7.9617E-09
1.050	8.3598E-09
1.060	8.4394E-09
1.100	1.7525E-08
1.200	1.9118E-08
1.300	2.0711E-08
1.400	2.2304E-08
1.500	3.5864E-08
1.550	3.7059E-08
