Material: glass / hoya / M-PCD51
Optical constants. HOYA Zemax catalog 2017-04-01 (obtained from http://www.hoya-opticalworld.com)
Comments: Glass for molded optics lens
Specs: {"n_absolute": false, "wavelength_vacuum": false, "temperature": "20.0 °C", "thermal_dispersion": [{"type": "Schott formula", "coefficients": "-5.75e-06 4.33e-09 -1.7e-11 3.99e-07 4.04e-10 0.175"}], "nd": 1.59201, "Vd": 67.02, "glass_code": 592670, "glass_status": "standard", "density": "3.14 g/cm3", "thermal_expansion": [{"temperature_range": "-30 70 °C", "coefficient": "8.9e-06 K-1"}, {"temperature_range": "20 300 °C", "coefficient": "1.16e-05 K-1"}], "dPgF": 0.0081, "climatic_resistance": 1.0, "acid_resistance": 4.0}
Dispersion formula 3, range 0.36501 1.01398 um, coefficients 2.502026 -0.01108292 2 0.0112772 -2 0.0005715408 -4 -5.587455e-05 -6 2.905292e-06 -8
wavelength (um)	k
0.280	7.3459E-06
0.290	5.0938E-06
0.300	3.5505E-06
0.310	2.4000E-06
0.320	1.5503E-06
0.330	9.5170E-07
0.340	5.6013E-07
0.350	3.1520E-07
0.360	1.6813E-07
0.370	8.9683E-08
0.380	5.1849E-08
0.390	3.1191E-08
0.400	2.2360E-08
0.420	2.0114E-08
0.440	1.7551E-08
0.460	1.0998E-08
0.480	7.6471E-09
0.500	3.9809E-09
0.550	4.3790E-09
0.600	4.7770E-09
0.650	5.1751E-09
0.700	5.5732E-09
0.750	1.1949E-08
0.780	1.2427E-08
0.800	1.2745E-08
0.830	6.6082E-09
0.850	1.3542E-08
0.900	7.1656E-09
0.950	1.5135E-08
1.000	1.5931E-08
1.050	1.6728E-08
1.060	1.6887E-08
1.100	8.7579E-09
1.200	9.5541E-09
1.300	1.0350E-08
1.400	2.2304E-08
1.500	3.5864E-08
1.550	3.7059E-08
