Material: glass / hoya / M-TAFD305
Optical constants. HOYA Zemax catalog 2017-04-01 (obtained from http://www.hoya-opticalworld.com)
Comments: Glass for molded optics lens
Specs: {"n_absolute": false, "wavelength_vacuum": false, "temperature": "20.0 °C", "thermal_dispersion": [{"type": "Schott formula", "coefficients": "5.25e-06 1.17e-08 -4.51e-11 1.25e-06 1.27e-09 0.0455"}], "nd": 1.85135, "Vd": 40.1, "glass_code": 851401, "glass_status": "standard", "density": "5.25 g/cm3", "thermal_expansion": [{"temperature_range": "-30 70 °C", "coefficient": "6e-06 K-1"}, {"temperature_range": "20 300 °C", "coefficient": "7.8e-06 K-1"}], "dPgF": -0.0067, "climatic_resistance": 1.0, "stain_resistance": 2.0, "acid_resistance": 3.0}
Dispersion formula 3, range 0.36501 1.01398 um, coefficients 3.327184 -0.01343242 2 0.033398 -2 0.001006047 -4 -2.136908e-05 -6 3.972561e-06 -8
wavelength (um)	k
0.340	8.7776E-06
0.350	4.3734E-06
0.360	2.0967E-06
0.370	1.0586E-06
0.380	6.0010E-07
0.390	3.6865E-07
0.400	2.4128E-07
0.420	1.3296E-07
0.440	8.5059E-08
0.460	5.9043E-08
0.480	3.8389E-08
0.500	1.9944E-08
0.550	4.3790E-09
0.600	4.7770E-09
0.650	5.1751E-09
0.700	5.5732E-09
0.750	2.9916E-08
0.780	3.1113E-08
0.800	3.8312E-08
0.830	2.6473E-08
0.850	4.0707E-08
0.900	5.0310E-08
0.950	4.5496E-08
1.000	5.5900E-08
1.050	5.0285E-08
1.060	5.0764E-08
1.100	5.2679E-08
1.200	4.7866E-08
1.300	4.1463E-08
1.400	4.4653E-08
1.500	4.7842E-08
1.550	6.1827E-08
