Material: glass / hoya / MC-NBF1
Optical constants. HOYA Zemax catalog 2017-04-01 (obtained from http://www.hoya-opticalworld.com)
Comments: Not in a position to accept new order because of discontinuation.
Specs: {"n_absolute": false, "wavelength_vacuum": false, "temperature": "20.0 °C", "thermal_dispersion": [{"type": "Schott formula", "coefficients": "1.12394e-05 0.0 0.0 0.0 0.0 0.0"}], "nd": 1.7433, "Vd": 49.33, "glass_code": 743493, "glass_status": "special", "density": "4.25 g/cm3", "thermal_expansion": [{"temperature_range": "-30 70 °C", "coefficient": "5.7e-06 K-1"}, {"temperature_range": "20 300 °C", "coefficient": "7.3e-06 K-1"}], "dPgF": -0.0068, "climatic_resistance": 1.0, "stain_resistance": 4.0, "acid_resistance": 4.0}
Dispersion formula 3, range 0.36501 1.01398 um, coefficients 2.975245 -0.01425016 2 0.02140074 -2 0.0009755337 -4 -6.97953e-05 -6 4.114924e-06 -8
wavelength (um)	k
0.280	3.9482E-06
0.290	2.4828E-06
0.300	1.9010E-06
0.310	1.7800E-06
0.320	9.9334E-07
0.330	6.6936E-07
0.340	4.3336E-07
0.350	2.6574E-07
0.360	1.5903E-07
0.370	9.2720E-08
0.380	5.8008E-08
0.390	3.7468E-08
0.400	2.5567E-08
0.420	1.6753E-08
0.440	1.4034E-08
0.460	1.0998E-08
0.480	1.1476E-08
0.500	7.9657E-09
0.550	8.7623E-09
0.600	4.7770E-09
0.650	5.1751E-09
0.700	5.5732E-09
0.750	5.9713E-09
0.780	6.2101E-09
0.800	6.3694E-09
0.830	6.6082E-09
0.850	6.7675E-09
0.900	1.4338E-08
0.950	2.2714E-08
1.000	2.3909E-08
1.050	2.5105E-08
1.060	2.5344E-08
1.100	2.6300E-08
1.200	2.8691E-08
1.300	4.1463E-08
1.400	1.3450E-07
1.500	1.4411E-07
1.550	1.3643E-07
