Material: glass / hoya / MC-TAF31-15
Optical constants. HOYA Zemax catalog 2017-04-01 (obtained from http://www.hoya-opticalworld.com)
Comments: Preforms for Precision molding
Specs: {"n_absolute": false, "wavelength_vacuum": false, "temperature": "20.0 °C", "thermal_dispersion": [{"type": "Schott formula", "coefficients": "7.66812e-06 0.0 0.0 0.0 0.0 0.0"}], "nd": 1.80154, "Vd": 45.46, "glass_code": 802455, "glass_status": "standard", "density": "4.84 g/cm3", "thermal_expansion": [{"temperature_range": "-30 70 °C", "coefficient": "6.2e-06 K-1"}, {"temperature_range": "20 300 °C", "coefficient": "7.7e-06 K-1"}], "dPgF": -0.0084, "climatic_resistance": 1.0, "stain_resistance": 3.0, "acid_resistance": 3.0}
Dispersion formula 3, range 0.36501 1.01398 um, coefficients 3.164475 -0.013801295 2 0.027926276 -2 0.00057403 -4 9.8223773e-07 -6 1.3284244e-06 -8
wavelength (um)	k
0.280	7.9669E-06
0.290	4.9912E-06
0.300	3.6256E-06
0.310	3.4397E-06
0.320	1.9335E-06
0.330	1.3240E-06
0.340	8.8881E-07
0.350	5.7318E-07
0.360	3.4675E-07
0.370	2.2001E-07
0.380	1.3923E-07
0.390	9.4531E-08
0.400	7.0810E-08
0.420	4.3734E-08
0.440	3.1655E-08
0.460	2.5714E-08
0.480	1.9146E-08
0.500	1.5947E-08
0.550	8.7623E-09
0.600	9.5589E-09
0.650	1.0355E-08
0.700	5.5732E-09
0.750	5.9713E-09
0.780	6.2101E-09
0.800	6.3694E-09
0.830	6.6082E-09
0.850	6.7675E-09
0.900	1.4338E-08
0.950	7.5636E-09
1.000	7.9617E-09
1.050	8.3598E-09
1.060	8.4394E-09
1.100	8.7579E-09
1.200	9.5541E-09
1.300	1.0350E-08
1.400	3.3473E-08
1.500	4.7842E-08
1.550	3.7059E-08
