Material: glass / hoya / MC-TAFD307
Optical constants. HOYA Zemax catalog 2017-04-01 (obtained from http://www.hoya-opticalworld.com)
Comments: Preforms for Precision molding
Specs: {"n_absolute": false, "wavelength_vacuum": false, "temperature": "20.0 °C", "thermal_dispersion": [{"type": "Schott formula", "coefficients": "7.80622e-06 0.0 0.0 0.0 0.0 0.0"}], "nd": 1.88202, "Vd": 37.22, "glass_code": 882372, "glass_status": "standard", "density": "5.49 g/cm3", "thermal_expansion": [{"temperature_range": "-30 70 °C", "coefficient": "6.7e-06 K-1"}, {"temperature_range": "20 300 °C", "coefficient": "7.3e-06 K-1"}], "dPgF": -0.0044, "climatic_resistance": 1.0, "stain_resistance": 2.0, "acid_resistance": 3.0}
Dispersion formula 3, range 0.36501 1.01398 um, coefficients 3.4286062 -0.013845333 2 0.037363009 -2 0.0011894554 -4 -1.5979979e-05 -6 5.1827398e-06 -8
wavelength (um)	k
0.350	8.8965E-06
0.360	3.8923E-06
0.370	1.6499E-06
0.380	8.7397E-07
0.390	5.1535E-07
0.400	3.4245E-07
0.420	1.8554E-07
0.440	1.2475E-07
0.460	9.2677E-08
0.480	7.3273E-08
0.500	5.6098E-08
0.550	3.0745E-08
0.600	2.8734E-08
0.650	3.1129E-08
0.700	2.7922E-08
0.750	2.3921E-08
0.780	2.4878E-08
0.800	2.5516E-08
0.830	1.3223E-08
0.850	1.3542E-08
0.900	2.1518E-08
0.950	2.2714E-08
1.000	2.3909E-08
1.050	2.5105E-08
1.060	1.6887E-08
1.100	2.6300E-08
1.200	1.9118E-08
1.300	3.1082E-08
1.400	4.4653E-08
1.500	7.1835E-08
1.550	6.1827E-08
