Material: glass / hoya / MP-LAC8-30
Optical constants. HOYA Zemax catalog 2017-04-01 (obtained from http://www.hoya-opticalworld.com)
Comments: Not in a position to accept new order because of discontinuation.
Specs: {"n_absolute": false, "wavelength_vacuum": false, "temperature": "20.0 °C", "thermal_dispersion": [{"type": "Schott formula", "coefficients": "5.46808e-06 0.0 0.0 0.0 0.0 0.0"}], "nd": 1.7133, "Vd": 53.95, "glass_code": 713539, "glass_status": "special", "density": "3.9 g/cm3", "thermal_expansion": [{"temperature_range": "-30 70 °C", "coefficient": "6.3e-06 K-1"}, {"temperature_range": "20 300 °C", "coefficient": "7.9e-06 K-1"}], "dPgF": -0.0064, "climatic_resistance": 1.0, "stain_resistance": 2.0, "acid_resistance": 4.0}
Dispersion formula 3, range 0.36501 1.01398 um, coefficients 2.8827498 -0.015740789 2 0.017707976 -2 0.0010483265 -4 -9.8332811e-05 -6 5.4828685e-06 -8
wavelength (um)	k
0.290	6.9134E-06
0.300	5.2695E-06
0.310	4.3712E-06
0.320	2.6734E-06
0.330	1.7682E-06
0.340	1.1242E-06
0.350	6.9202E-07
0.360	4.3208E-07
0.370	2.3911E-07
0.380	1.4875E-07
0.390	1.0094E-07
0.400	7.4066E-08
0.420	4.7122E-08
0.440	3.5190E-08
0.460	2.5714E-08
0.480	1.9146E-08
0.500	1.1955E-08
0.550	8.7623E-09
0.600	1.4345E-08
0.650	1.5541E-08
0.700	1.1152E-08
0.750	1.1949E-08
0.780	1.2427E-08
0.800	6.3694E-09
0.830	1.3223E-08
0.850	1.3542E-08
0.900	1.4338E-08
0.950	1.5135E-08
1.000	1.5931E-08
1.050	1.6728E-08
1.060	1.6887E-08
1.100	1.7525E-08
1.200	9.5541E-09
1.300	1.0350E-08
1.400	4.4653E-08
1.500	4.7842E-08
1.550	4.9437E-08
