Material: glass / hoya / MP-TAF101-100
Optical constants. HOYA Zemax catalog 2017-04-01 (obtained from http://www.hoya-opticalworld.com)
Comments: Preforms for Precision molding
Specs: {"n_absolute": false, "wavelength_vacuum": false, "temperature": "20.0 °C", "thermal_dispersion": [{"type": "Schott formula", "coefficients": "4.69243e-06 0.0 0.0 0.0 0.0 0.0"}], "nd": 1.76902, "Vd": 49.29, "glass_code": 769493, "glass_status": "standard", "density": "4.56 g/cm3", "thermal_expansion": [{"temperature_range": "-30 70 °C", "coefficient": "5.9e-06 K-1"}, {"temperature_range": "20 300 °C", "coefficient": "7.4e-06 K-1"}], "dPgF": -0.008, "climatic_resistance": 1.0, "stain_resistance": 2.0, "acid_resistance": 4.0}
Dispersion formula 3, range 0.36501 1.01398 um, coefficients 3.0591566 -0.013604717 2 0.024624272 -2 0.00041834242 -4 2.5361908e-06 -6 7.998082e-07 -8
wavelength (um)	k
0.280	7.6694E-06
0.290	5.0114E-06
0.300	3.9027E-06
0.310	3.3517E-06
0.320	2.1373E-06
0.330	1.3371E-06
0.340	8.9257E-07
0.350	5.7318E-07
0.360	3.5322E-07
0.370	2.1367E-07
0.380	1.3923E-07
0.390	9.4531E-08
0.400	6.7557E-08
0.420	4.7122E-08
0.440	3.5190E-08
0.460	2.5714E-08
0.480	1.5310E-08
0.500	3.9809E-09
0.550	4.3790E-09
0.600	1.4345E-08
0.650	1.5541E-08
0.700	1.1152E-08
0.750	1.1949E-08
0.780	1.2427E-08
0.800	1.2745E-08
0.830	1.9845E-08
0.850	2.0323E-08
0.900	2.1518E-08
0.950	2.2714E-08
1.000	2.3909E-08
1.050	1.6728E-08
1.060	8.4394E-09
1.100	1.7525E-08
1.200	9.5541E-09
1.300	1.0350E-08
1.400	2.2304E-08
1.500	4.7842E-08
1.550	3.7059E-08
