Material: glass / hoya / NBFD13
Optical constants. HOYA Zemax catalog 2017-04-01 (obtained from http://www.hoya-opticalworld.com)
Comments: Recommended glass type
Specs: {"n_absolute": false, "wavelength_vacuum": false, "temperature": "20.0 °C", "thermal_dispersion": [{"type": "Schott formula", "coefficients": "6.67424e-06 0.0 0.0 0.0 0.0 0.0"}], "nd": 1.8061, "Vd": 40.73, "glass_code": 806407, "glass_status": "standard", "density": "4.38 g/cm3", "thermal_expansion": [{"temperature_range": "-30 70 °C", "coefficient": "5.7e-06 K-1"}, {"temperature_range": "20 300 °C", "coefficient": "7.2e-06 K-1"}], "dPgF": -0.0078, "climatic_resistance": 1.0, "stain_resistance": 2.0, "acid_resistance": 3.0}
Dispersion formula 3, range 0.36501 1.01398 um, coefficients 3.1729223 -0.014248534 2 0.029168114 -2 0.001342876 -4 -9.6178753e-05 -6 8.4042556e-06 -8
wavelength (um)	k
0.340	7.8475E-06
0.350	3.4962E-06
0.360	1.5067E-06
0.370	7.7721E-07
0.380	4.7018E-07
0.390	2.9952E-07
0.400	2.1053E-07
0.420	1.2601E-07
0.440	9.2241E-08
0.460	6.2765E-08
0.480	3.8389E-08
0.500	2.7950E-08
0.550	4.3790E-09
0.600	4.7770E-09
0.650	5.1751E-09
0.700	5.5732E-09
0.750	5.9713E-09
0.780	6.2101E-09
0.800	6.3694E-09
0.830	6.6082E-09
0.850	6.7675E-09
0.900	7.1656E-09
0.950	7.5636E-09
1.000	7.9617E-09
1.050	8.3598E-09
1.060	8.4394E-09
1.100	8.7579E-09
1.200	9.5541E-09
1.300	1.0350E-08
1.400	3.3473E-08
1.500	4.7842E-08
1.550	3.7059E-08
