Material: glass / hoya / NBFD3
Optical constants. HOYA Zemax catalog 2017-04-01 (obtained from http://www.hoya-opticalworld.com)
Comments: General glass Type
Specs: {"n_absolute": false, "wavelength_vacuum": false, "temperature": "20.0 °C", "thermal_dispersion": [{"type": "Schott formula", "coefficients": "1.16184e-05 0.0 0.0 0.0 0.0 0.0"}], "nd": 1.8045, "Vd": 39.63, "glass_code": 805396, "density": "4.39 g/cm3", "thermal_expansion": [{"temperature_range": "-30 70 °C", "coefficient": "5.3e-06 K-1"}, {"temperature_range": "20 300 °C", "coefficient": "7e-06 K-1"}], "dPgF": -0.0056, "climatic_resistance": 2.0, "stain_resistance": 3.0, "acid_resistance": 5.0}
Dispersion formula 3, range 0.36501 1.01398 um, coefficients 3.1633746 -0.01327628 2 0.031133309 -2 0.0008352338 -4 2.9980499e-06 -6 2.5568853e-06 -8
wavelength (um)	k
0.350	5.2106E-06
0.360	2.0030E-06
0.370	9.0653E-07
0.380	4.9145E-07
0.390	3.0637E-07
0.400	1.9696E-07
0.420	1.1561E-07
0.440	7.7891E-08
0.460	5.5324E-08
0.480	4.2250E-08
0.500	2.3945E-08
0.550	1.3150E-08
0.600	4.7770E-09
0.650	1.0355E-08
0.700	5.5732E-09
0.750	5.9713E-09
0.780	6.2101E-09
0.800	6.3694E-09
0.830	6.6082E-09
0.850	6.7675E-09
0.900	7.1656E-09
0.950	7.5636E-09
1.000	7.9617E-09
1.050	8.3598E-09
1.060	8.4394E-09
1.100	8.7579E-09
1.200	9.5541E-09
1.300	1.0350E-08
1.400	4.4653E-08
1.500	8.3850E-08
1.550	7.4230E-08
