Material: glass / hoya / PCD51
Optical constants. HOYA Zemax catalog 2017-04-01 (obtained from http://www.hoya-opticalworld.com)
Comments: Recommended glass type
Specs: {"n_absolute": false, "wavelength_vacuum": false, "temperature": "20.0 °C", "thermal_dispersion": [{"type": "Schott formula", "coefficients": "-5.75e-06 4.33e-09 -1.7e-11 3.99e-07 4.04e-10 0.175"}], "nd": 1.59349, "Vd": 67.0, "glass_code": 593670, "glass_status": "standard", "density": "3.14 g/cm3", "thermal_expansion": [{"temperature_range": "-30 70 °C", "coefficient": "8.9e-06 K-1"}, {"temperature_range": "20 300 °C", "coefficient": "1.16e-05 K-1"}], "dPgF": 0.0091, "climatic_resistance": 1.0, "acid_resistance": 4.0}
Dispersion formula 3, range 0.36501 1.01398 um, coefficients 2.5046638 -0.010149448 2 0.012653769 -2 0.00016566642 -4 5.3871747e-07 -6 5.584093e-08 -8
wavelength (um)	k
0.280	4.3026E-06
0.290	3.1087E-06
0.300	2.2055E-06
0.310	1.4883E-06
0.320	9.4491E-07
0.330	5.7943E-07
0.340	3.3360E-07
0.350	1.8719E-07
0.360	1.0503E-07
0.370	6.5499E-08
0.380	4.2634E-08
0.390	3.1191E-08
0.400	2.8778E-08
0.420	3.0216E-08
0.440	2.8124E-08
0.460	2.2030E-08
0.480	1.5310E-08
0.500	1.1955E-08
0.550	8.7623E-09
0.600	1.4345E-08
0.650	1.0355E-08
0.700	1.1152E-08
0.750	5.9713E-09
0.780	6.2101E-09
0.800	6.3694E-09
0.830	6.6082E-09
0.850	6.7675E-09
0.900	7.1656E-09
0.950	7.5636E-09
1.000	1.5931E-08
1.050	1.6728E-08
1.060	8.4394E-09
1.100	1.7525E-08
1.200	1.9118E-08
1.300	2.0711E-08
1.400	6.7046E-08
1.500	9.5877E-08
1.550	9.9073E-08
