Material: glass / hoya / TAC6
Optical constants. HOYA Zemax catalog 2017-04-01 (obtained from http://www.hoya-opticalworld.com)
Comments: Not in a position to accept new order because of discontinuation.
Specs: {"n_absolute": false, "wavelength_vacuum": false, "temperature": "20.0 °C", "thermal_dispersion": [{"type": "Schott formula", "coefficients": "5.21116e-06 0.0 0.0 0.0 0.0 0.0"}], "nd": 1.755, "Vd": 52.33, "glass_code": 755523, "glass_status": "special", "density": "4.27 g/cm3", "thermal_expansion": [{"temperature_range": "-30 70 °C", "coefficient": "6e-06 K-1"}, {"temperature_range": "20 300 °C", "coefficient": "7.4e-06 K-1"}], "dPgF": -0.0067, "climatic_resistance": 1.0, "stain_resistance": 3.0, "acid_resistance": 4.0}
Dispersion formula 3, range 0.36501 1.01398 um, coefficients 3.0182184 -0.015381633 2 0.021520137 -2 0.00064608303 -4 -3.2355748e-05 -6 2.0791593e-06 -8
wavelength (um)	k
0.280	7.0111E-06
0.290	4.9123E-06
0.300	3.7258E-06
0.310	3.1491E-06
0.320	1.9444E-06
0.330	1.3327E-06
0.340	8.8131E-07
0.350	5.6976E-07
0.360	3.4029E-07
0.370	2.1051E-07
0.380	1.2975E-07
0.390	8.1759E-08
0.400	6.1061E-08
0.420	3.3591E-08
0.440	2.8124E-08
0.460	2.5714E-08
0.480	1.5310E-08
0.500	1.1955E-08
0.550	4.3790E-09
0.600	9.5589E-09
0.650	1.0355E-08
0.700	5.5732E-09
0.750	5.9713E-09
0.780	6.2101E-09
0.800	6.3694E-09
0.830	1.3223E-08
0.850	1.3542E-08
0.900	7.1656E-09
0.950	7.5636E-09
1.000	7.9617E-09
1.050	8.3598E-09
1.060	8.4394E-09
1.100	8.7579E-09
1.200	9.5541E-09
1.300	1.0350E-08
1.400	4.4653E-08
1.500	5.9833E-08
1.550	7.4230E-08
