Material: main / Fe / Querry
Optical constants. M. R. Querry. Optical constants, Contractor Report CRDC-CR-85034 (1985)
wavelength (um)	n	k
0.2100	1.141	1.305
0.2300	1.110	1.408
0.2500	1.109	1.553
0.2700	1.127	1.690
0.2900	1.142	1.829
0.3100	1.164	1.976
0.3300	1.207	2.141
0.3500	1.262	2.295
0.3700	1.339	2.454
0.3900	1.442	2.588
0.4100	1.538	2.698
0.4300	1.631	2.806
0.4500	1.736	2.906
0.4700	1.846	2.989
0.4900	1.952	3.043
0.5100	2.039	3.091
0.5300	2.119	3.134
0.5500	2.189	3.171
0.5700	2.252	3.210
0.5900	2.305	3.241
0.6100	2.350	3.277
0.6300	2.391	3.317
0.6500	2.427	3.361
0.6700	2.468	3.404
0.6900	2.503	3.443
0.7100	2.533	3.485
0.7300	2.564	3.527
0.7500	2.587	3.569
0.7700	2.611	3.619
0.7900	2.633	3.669
0.8100	2.657	3.714
0.8300	2.678	3.769
0.8500	2.700	3.822
0.8700	2.729	3.879
0.8900	2.757	3.926
0.9100	2.777	3.976
0.9300	2.802	4.026
0.9500	2.821	4.075
0.9700	2.845	4.122
0.9900	2.863	4.164
1.0100	2.877	4.216
1.0300	2.891	4.270
1.0500	2.910	4.325
1.0700	2.927	4.377
1.0900	2.948	4.431
1.1100	2.965	4.479
1.1300	2.980	4.530
1.1500	2.996	4.581
1.1700	3.009	4.632
1.1900	3.028	4.681
1.2100	3.018	4.743
1.2300	3.046	4.800
1.2500	3.064	4.852
1.2700	3.083	4.908
1.2900	3.096	4.957
1.3100	3.114	5.008
1.3300	3.125	5.061
1.3500	3.141	5.109
1.3700	3.148	5.159
1.3900	3.156	5.217
1.4100	3.170	5.273
1.4300	3.181	5.327
1.4500	3.194	5.385
1.4700	3.205	5.438
1.4900	3.221	5.496
1.5100	3.234	5.549
1.5300	3.251	5.600
1.5500	3.260	5.657
1.5700	3.275	5.707
1.5900	3.286	5.759
1.6100	3.296	5.809
1.6300	3.307	5.863
1.6500	3.315	5.915
1.6700	3.323	5.970
1.6900	3.329	6.027
1.7100	3.338	6.080
1.7300	3.347	6.136
1.7500	3.356	6.196
1.7700	3.367	6.251
1.7900	3.376	6.311
1.8100	3.392	6.370
1.8300	3.402	6.424
1.8500	3.414	6.486
1.8700	3.431	6.534
1.8900	3.442	6.586
1.9100	3.450	6.636
1.9300	3.456	6.699
1.9500	3.470	6.755
1.9700	3.484	6.806
1.9900	3.494	6.855
2.0100	3.483	6.927
2.0300	3.507	6.981
2.0500	3.522	7.042
2.0700	3.538	7.094
2.0900	3.550	7.151
2.1100	3.563	7.199
2.1300	3.572	7.254
2.1500	3.583	7.309
2.1700	3.598	7.366
2.1900	3.611	7.415
2.2100	3.621	7.466
2.2300	3.626	7.519
2.2500	3.640	7.573
2.2700	3.647	7.626
2.2900	3.656	7.677
2.3100	3.662	7.732
2.3300	3.671	7.790
2.3500	3.680	7.849
2.3700	3.691	7.903
2.3900	3.705	7.966
2.4100	3.720	8.014
2.4300	3.730	8.071
2.4500	3.741	8.120
2.4700	3.744	8.183
2.4900	3.763	8.247
2.5126	3.797	8.307
2.5253	3.811	8.333
2.5381	3.821	8.358
2.5510	3.829	8.385
2.5641	3.835	8.412
2.5773	3.839	8.440
2.5907	3.842	8.470
2.6042	3.844	8.502
2.6178	3.846	8.535
2.6316	3.850	8.570
2.6455	3.853	8.606
2.6596	3.857	8.642
2.6738	3.861	8.679
2.6882	3.865	8.716
2.7027	3.868	8.754
2.7174	3.873	8.794
2.7322	3.877	8.834
2.7473	3.882	8.874
2.7624	3.888	8.915
2.7778	3.894	8.957
2.7933	3.901	8.999
2.8090	3.908	9.041
2.8249	3.916	9.083
2.8409	3.923	9.125
2.8571	3.930	9.167
2.8736	3.938	9.211
2.8902	3.946	9.254
2.9070	3.954	9.296
2.9240	3.961	9.340
2.9412	3.970	9.383
2.9586	3.977	9.426
2.9762	3.985	9.471
2.9940	3.993	9.514
3.0120	4.000	9.558
3.0303	4.006	9.602
3.0488	4.011	9.647
3.0675	4.015	9.693
3.0864	4.020	9.741
3.1056	4.026	9.789
3.1250	4.031	9.836
3.1447	4.034	9.865
3.1646	4.038	9.936
3.1847	4.042	9.988
3.2051	4.046	10.040
3.2258	4.051	10.094
3.2468	4.054	10.100
3.2680	4.059	10.205
3.2895	4.065	10.262
3.3113	4.071	10.320
3.3333	4.079	10.377
3.3557	4.086	10.435
3.3784	4.092	10.492
3.4014	4.099	10.551
3.4247	4.106	10.610
3.4483	4.113	10.670
3.4722	4.119	10.729
3.4965	4.125	10.789
3.5211	4.131	10.849
3.5461	4.134	10.910
3.5714	4.137	10.973
3.5971	4.140	11.036
3.6232	4.141	11.101
3.6496	4.142	11.147
3.6765	4.141	11.237
3.7037	4.142	11.309
3.7313	4.142	11.382
3.7594	4.144	11.457
3.7879	4.145	11.533
3.8168	4.147	11.612
3.8462	4.149	11.692
3.8760	4.153	11.774
3.9063	4.157	11.857
3.9370	4.162	11.940
3.9683	4.166	12.024
4.0000	4.171	12.111
4.0323	4.178	12.200
4.0650	4.185	12.287
4.0984	4.192	12.374
4.1322	4.197	12.462
4.1667	4.203	12.552
4.2017	4.207	12.642
4.2373	4.209	12.734
4.2735	4.211	12.830
4.3103	4.213	12.927
4.3478	4.214	13.026
4.3860	4.215	13.129
4.4248	4.216	13.234
4.4643	4.219	13.341
4.5045	4.223	13.449
4.5455	4.224	13.557
4.5872	4.224	13.669
4.6296	4.222	13.784
4.6729	4.221	13.903
4.7170	4.221	14.025
4.7619	4.221	14.150
4.8077	4.221	14.278
4.8544	4.221	14.409
4.9020	4.221	14.544
4.9505	4.222	14.682
5.0000	4.225	14.823
5.0505	4.227	14.966
5.1020	4.230	15.113
5.1546	4.234	15.262
5.2083	4.237	15.414
5.2632	4.239	15.570
5.3191	4.242	15.731
5.3763	4.247	15.896
5.4348	4.252	16.064
5.4945	4.255	16.236
5.5556	4.261	16.414
5.6180	4.271	16.594
5.6818	4.280	16.774
5.7471	4.284	16.957
5.8140	4.286	17.149
5.8824	4.291	17.348
5.9524	4.296	17.551
6.0241	4.301	17.761
6.0976	4.309	17.976
6.1728	4.316	18.195
6.2500	4.321	18.422
6.3291	4.327	18.656
6.4103	4.334	18.899
6.4935	4.344	19.153
6.5789	4.358	19.412
6.6667	4.374	19.678
6.7568	4.393	19.952
6.8493	4.417	20.233
6.9444	4.442	20.518
7.0423	4.469	20.813
7.1429	4.500	21.115
7.2464	4.534	21.423
7.3529	4.569	21.739
7.4627	4.606	22.065
7.5758	4.652	22.399
7.6923	4.698	22.733
7.8125	4.739	23.080
7.9365	4.786	23.442
8.0645	4.844	23.809
8.1967	4.901	24.177
8.3333	4.955	24.554
8.4746	5.009	24.941
8.6207	5.061	25.334
8.7719	5.104	25.738
8.9286	5.138	26.161
9.0909	5.171	26.608
9.2593	5.205	27.075
9.4340	5.239	27.566
9.6153	5.279	28.078
9.8039	5.318	28.613
10.0000	5.362	29.175
10.2041	5.415	29.762
10.4167	5.475	30.371
10.6383	5.539	30.999
10.8696	5.600	31.654
11.1111	5.662	32.342
11.3636	5.726	33.065
11.6279	5.796	33.827
11.9048	5.867	34.629
12.1951	5.951	35.486
12.5000	6.063	36.380
12.8205	6.181	37.309
13.1579	6.308	38.289
13.5135	6.453	39.316
13.8889	6.609	40.389
14.2857	6.770	41.516
14.7059	6.931	42.706
15.1515	7.095	43.981
15.6250	7.275	45.352
16.1290	7.495	46.822
16.6667	7.758	48.367
17.2414	8.028	49.996
17.8571	8.310	51.742
18.5185	8.604	53.611
19.2308	8.901	55.652
20.0000	9.238	57.878
20.8333	9.589	60.320
21.7391	9.991	63.067
22.7273	10.553	66.135
23.8095	11.294	69.477
25.0000	12.195	73.151
26.3158	13.336	77.211
27.7778	14.786	81.664
29.4118	16.597	86.524
31.2500	18.813	91.768
33.3333	21.354	97.458
35.7143	24.261	103.902
38.4615	27.921	111.240
41.6667	32.461	119.413
45.4545	37.988	128.832
50.0000	45.257	139.754
55.5556	54.848	152.133
