Material: main / CsBr / Querry
Optical constants. M. R. Querry. Optical constants of minerals and other materials from the millimeter to the ultraviolet, Contractor Report CRDEC-CR-88009 (1987)
wavelength (um)	n	k
0.2130	2.022	0.258
0.2330	1.915	0.100
0.2530	1.844	0.048
0.2730	1.803	0.023
0.2930	1.774	0.011
0.3130	1.753	0.005
0.3330	1.739	0.000
0.3530	1.725	0.000
0.3730	1.715	0.000
0.3930	1.708	0.000
0.4130	1.701	0.000
0.4330	1.696	0.000
0.4530	1.691	0.000
0.4730	1.687	0.000
0.4930	1.681	0.000
0.5130	1.679	0.000
0.5330	1.676	0.000
0.5530	1.673	0.000
0.5730	1.673	0.000
0.5930	1.672	0.000
0.6130	1.671	0.000
0.6330	1.670	0.000
0.6530	1.669	0.000
0.6730	1.668	0.000
0.6930	1.668	0.000
0.7130	1.667	0.000
0.7330	1.667	0.000
0.7530	1.667	0.000
0.7730	1.667	0.000
0.7930	1.667	0.000
0.8130	1.668	0.000
0.8330	1.668	0.000
0.8530	1.668	0.000
0.8730	1.667	0.000
0.8930	1.667	0.000
0.9130	1.666	0.000
0.9330	1.666	0.000
0.9530	1.666	0.000
0.9730	1.666	0.000
0.9930	1.667	0.000
1.0130	1.667	0.000
1.0330	1.668	0.000
1.0530	1.669	0.000
1.0730	1.670	0.000
1.0930	1.670	0.000
1.1130	1.670	0.000
1.1330	1.670	0.000
1.1530	1.671	0.000
1.1730	1.670	0.000
1.1930	1.670	0.000
1.2130	1.670	0.000
1.2330	1.670	0.000
1.2530	1.670	0.000
1.2730	1.670	0.000
1.2930	1.670	0.000
1.3130	1.670	0.000
1.3330	1.670	0.000
1.3530	1.669	0.000
1.3730	1.669	0.000
1.3930	1.669	0.000
1.4130	1.669	0.000
1.4330	1.669	0.000
1.4530	1.669	0.000
1.4730	1.669	0.000
1.4930	1.669	0.000
1.5130	1.669	0.000
1.5330	1.669	0.000
1.5530	1.669	0.000
1.5730	1.669	0.000
1.5930	1.669	0.000
1.6130	1.669	0.000
1.6330	1.669	0.000
1.6530	1.669	0.000
1.6730	1.669	0.000
1.6930	1.669	0.000
1.7130	1.669	0.000
1.7330	1.669	0.000
1.7530	1.669	0.000
1.7730	1.669	0.000
1.7930	1.669	0.000
1.8130	1.669	0.000
1.8330	1.670	0.000
1.8530	1.670	0.000
1.8730	1.670	0.000
1.8930	1.670	0.000
1.9130	1.670	0.000
1.9330	1.670	0.000
1.9530	1.670	0.000
1.9730	1.670	0.000
1.9930	1.670	0.000
2.0130	1.670	0.000
2.0330	1.670	0.000
2.0730	1.670	0.000
2.0530	1.669	0.000
2.0930	1.670	0.000
2.1130	1.670	0.000
2.1330	1.670	0.000
2.1530	1.670	0.000
2.1730	1.670	0.000
2.1930	1.670	0.000
2.2130	1.670	0.000
2.2330	1.670	0.000
2.2530	1.670	0.000
2.2730	1.671	0.000
2.2930	1.671	0.000
2.3130	1.671	0.000
2.3330	1.671	0.000
2.3530	1.671	0.000
2.3730	1.672	0.000
2.3930	1.672	0.000
2.4130	1.672	0.000
2.4330	1.672	0.000
2.4530	1.672	0.000
2.4730	1.672	0.000
2.4930	1.672	0.000
2.5082	1.672	0.000
2.5208	1.672	0.000
2.5336	1.671	0.000
2.5465	1.671	0.000
2.5595	1.671	0.000
2.5727	1.671	0.000
2.5860	1.671	0.000
2.5994	1.671	0.000
2.6130	1.671	0.000
2.6267	1.671	0.000
2.6406	1.671	0.000
2.6546	1.671	0.000
2.6688	1.670	0.000
2.6831	1.670	0.000
2.6976	1.670	0.000
2.7122	1.670	0.000
2.7270	1.670	0.000
2.7420	1.670	0.000
2.7571	1.670	0.000
2.7724	1.670	0.000
2.7878	1.670	0.000
2.8035	1.670	0.000
2.8193	1.670	0.000
2.8353	1.670	0.000
2.8514	1.670	0.000
2.8678	1.670	0.000
2.8843	1.670	0.000
2.9011	1.670	0.000
2.9180	1.670	0.000
2.9351	1.669	0.000
2.9525	1.669	0.000
2.9700	1.669	0.000
2.9878	1.669	0.000
3.0057	1.669	0.000
3.0239	1.669	0.000
3.0423	1.669	0.000
3.0609	1.669	0.000
3.0798	1.669	0.000
3.0989	1.669	0.000
3.1182	1.669	0.000
3.1377	1.669	0.000
3.1576	1.669	0.000
3.1776	1.668	0.000
3.1980	1.668	0.000
3.2185	1.668	0.000
3.2394	1.668	0.000
3.2605	1.668	0.000
3.2819	1.668	0.000
3.3036	1.668	0.000
3.3256	1.668	0.000
3.3478	1.668	0.000
3.3704	1.668	0.000
3.3933	1.668	0.000
3.4165	1.668	0.000
3.4400	1.668	0.000
3.4638	1.668	0.000
3.4880	1.668	0.000
3.5125	1.668	0.000
3.5373	1.668	0.000
3.5625	1.668	0.000
3.5881	1.668	0.000
3.6140	1.668	0.000
3.6403	1.668	0.000
3.6670	1.667	0.000
3.6941	1.667	0.000
3.7216	1.667	0.000
3.7495	1.667	0.000
3.7779	1.667	0.000
3.8066	1.667	0.000
3.8358	1.667	0.000
3.8655	1.667	0.000
3.8956	1.667	0.000
3.9262	1.667	0.000
3.9573	1.667	0.000
3.9888	1.667	0.000
4.0209	1.667	0.000
4.0535	1.667	0.000
4.0866	1.667	0.000
4.1203	1.667	0.000
4.1545	1.667	0.000
4.1894	1.667	0.000
4.2248	1.667	0.000
4.2608	1.666	0.000
4.2974	1.666	0.000
4.3346	1.666	0.000
4.3725	1.666	0.000
4.4111	1.666	0.000
4.4504	1.666	0.000
4.4903	1.666	0.000
4.5310	1.666	0.000
4.5725	1.666	0.000
4.6147	1.666	0.000
4.6577	1.666	0.000
4.7015	1.666	0.000
4.7461	1.666	0.000
4.7916	1.667	0.000
4.8379	1.666	0.000
4.8852	1.667	0.000
4.9334	1.667	0.000
4.9826	1.667	0.000
5.0327	1.667	0.000
5.0839	1.667	0.000
5.1361	1.667	0.000
5.1894	1.668	0.000
5.2438	1.667	0.000
5.2994	1.668	0.000
5.3562	1.668	0.000
5.4142	1.668	0.000
5.4735	1.668	0.000
5.5340	1.668	0.000
5.5980	1.668	0.000
5.6593	1.668	0.000
5.7241	1.668	0.000
5.7904	1.668	0.000
5.8582	1.668	0.000
5.9777	1.669	0.000
5.9968	1.669	0.000
6.0710	1.669	0.000
6.1463	1.668	0.000
6.2228	1.668	0.000
6.3012	1.668	0.000
6.3816	1.668	0.000
6.4641	1.668	0.000
6.5488	1.668	0.000
6.6357	1.668	0.000
6.7249	1.668	0.000
6.8166	1.668	0.000
6.9109	1.668	0.000
7.0077	1.667	0.000
7.1073	1.667	0.000
7.2098	1.667	0.000
7.3153	1.667	0.000
7.4239	1.667	0.000
7.5358	1.667	0.000
7.6511	1.667	0.000
7.7700	1.667	0.000
7.8927	1.667	0.000
8.0192	1.667	0.000
8.1500	1.667	0.000
8.2850	1.667	0.000
8.4246	1.667	0.000
8.5690	1.667	0.000
8.7184	1.667	0.000
8.8731	1.667	0.000
9.0334	1.667	0.000
9.1996	1.667	0.000
9.3721	1.666	0.000
9.5511	1.666	0.000
9.7371	1.666	0.000
9.9305	1.666	0.000
10.1317	1.666	0.000
10.3413	1.665	0.000
10.5597	1.665	0.000
10.7875	1.665	0.000
11.0254	1.664	0.000
11.2740	1.664	0.000
11.5340	1.663	0.000
11.8064	1.663	0.000
12.0919	1.662	0.000
12.3916	1.662	0.000
12.7065	1.662	0.000
13.0378	1.662	0.000
13.3869	1.662	0.000
13.7552	1.662	0.000
14.1443	1.662	0.000
14.5560	1.662	0.000
14.9925	1.662	0.000
15.4560	1.662	0.000
15.9490	1.662	0.000
16.4745	1.661	0.000
17.0358	1.661	0.000
17.6367	1.661	0.000
18.2815	1.659	0.000
18.9753	1.658	0.000
19.7239	1.656	0.000
20.5339	1.655	0.000
21.4133	1.653	0.000
22.3714	1.649	0.000
23.4192	1.645	0.000
24.5700	1.640	0.000
25.8398	1.636	0.000
27.2480	1.632	0.000
28.8184	1.624	0.000
30.5810	1.615	0.000
32.5733	1.606	0.000
34.8432	1.595	0.000
37.4532	1.581	0.000
40.4858	1.561	0.000
44.0529	1.543	0.000
48.3092	1.519	0.000
53.4759	1.485	0.000
59.8802	1.431	0.004
68.0272	1.339	0.011
78.7402	1.151	0.027
93.4579	0.511	0.165
114.9425	0.330	2.014
149.2537	4.137	0.602
