Material: organic / C8H8 - styrene / Myers
Optical constants. T. L. Myers, R. G. Tonkyn, T. O. Danby, M. S. Taubman, B. E. Bernacki, J. C. Birnbaum, S. W. Sharpe, T. J. Johnson. Accurate measurement of the optical constants n and k for a series of 57 inorganic and organic liquids for optical modeling and detection, Appl. Spectrosc. 72, 535-550 (2018) (see Supplemental Material for numerical data)
Comments: Isopropanol. 26 Â°C.
Specs: {"n_absolute": true, "wavelength_vacuum": true, "temperature": "26 Â°C"}
wavelength (um)	n	k
1.28244E+00	1.51623E+00	2.87297E-05
1.28554E+00	1.51626E+00	2.93868E-05
1.28866E+00	1.51626E+00	2.97546E-05
1.29179E+00	1.51626E+00	2.89468E-05
1.29493E+00	1.51627E+00	2.83588E-05
1.29809E+00	1.51627E+00	2.79222E-05
1.30127E+00	1.51627E+00	2.78513E-05
1.30446E+00	1.51626E+00	2.73144E-05
1.30767E+00	1.51626E+00	2.76546E-05
1.31089E+00	1.51626E+00	2.86180E-05
1.31413E+00	1.51626E+00	2.88911E-05
1.31739E+00	1.51626E+00	2.92011E-05
1.32066E+00	1.51626E+00	2.92872E-05
1.32395E+00	1.51626E+00	2.98213E-05
1.32725E+00	1.51626E+00	3.14385E-05
1.33057E+00	1.51626E+00	3.23083E-05
1.33391E+00	1.51626E+00	3.03664E-05
1.33726E+00	1.51626E+00	3.02156E-05
1.34063E+00	1.51626E+00	2.99964E-05
1.34402E+00	1.51625E+00	2.94626E-05
1.34743E+00	1.51625E+00	3.03007E-05
1.35085E+00	1.51625E+00	2.97185E-05
1.35429E+00	1.51625E+00	3.05061E-05
1.35775E+00	1.51625E+00	3.13585E-05
1.36122E+00	1.51625E+00	3.08058E-05
1.36471E+00	1.51625E+00	3.03449E-05
1.36823E+00	1.51624E+00	2.96108E-05
1.37176E+00	1.51624E+00	2.98036E-05
1.37530E+00	1.51624E+00	3.11039E-05
1.37887E+00	1.51624E+00	3.11029E-05
1.38245E+00	1.51624E+00	3.02362E-05
1.38606E+00	1.51623E+00	3.05304E-05
1.38968E+00	1.51623E+00	3.07177E-05
1.39332E+00	1.51623E+00	3.10319E-05
1.39698E+00	1.51623E+00	3.13117E-05
1.40066E+00	1.51623E+00	3.13360E-05
1.40436E+00	1.51623E+00	3.10485E-05
1.40807E+00	1.51622E+00	3.09568E-05
1.41181E+00	1.51622E+00	3.10326E-05
1.41557E+00	1.51622E+00	3.09386E-05
1.41935E+00	1.51622E+00	3.10901E-05
1.42315E+00	1.51622E+00	3.17324E-05
1.42697E+00	1.51621E+00	3.27840E-05
1.43080E+00	1.51621E+00	3.33291E-05
1.43466E+00	1.51621E+00	3.29512E-05
1.43854E+00	1.51621E+00	3.25761E-05
1.44245E+00	1.51621E+00	3.21246E-05
1.44637E+00	1.51621E+00	3.17509E-05
1.45031E+00	1.51620E+00	3.13846E-05
1.45428E+00	1.51620E+00	3.09828E-05
1.45827E+00	1.51620E+00	3.10434E-05
1.46228E+00	1.51620E+00	3.09727E-05
1.46631E+00	1.51619E+00	3.11632E-05
1.47036E+00	1.51619E+00	3.11994E-05
1.47444E+00	1.51619E+00	3.11197E-05
1.47854E+00	1.51619E+00	3.14033E-05
1.48266E+00	1.51618E+00	3.12027E-05
1.48681E+00	1.51618E+00	3.09493E-05
1.49097E+00	1.51618E+00	3.08195E-05
1.49517E+00	1.51618E+00	3.10001E-05
1.49938E+00	1.51617E+00	3.03918E-05
1.50362E+00	1.51617E+00	3.00900E-05
1.50788E+00	1.51617E+00	3.03058E-05
1.51217E+00	1.51616E+00	3.02454E-05
1.51648E+00	1.51616E+00	3.00435E-05
1.52082E+00	1.51616E+00	2.99763E-05
1.52518E+00	1.51615E+00	3.00162E-05
1.52957E+00	1.51615E+00	2.99545E-05
1.53398E+00	1.51615E+00	2.97168E-05
1.53842E+00	1.51614E+00	2.94594E-05
1.54288E+00	1.51614E+00	2.95636E-05
1.54737E+00	1.51614E+00	2.95012E-05
1.55189E+00	1.51613E+00	2.94440E-05
1.55643E+00	1.51613E+00	2.95289E-05
1.56100E+00	1.51612E+00	2.94986E-05
1.56559E+00	1.51612E+00	2.96119E-05
1.57021E+00	1.51611E+00	2.97295E-05
1.57486E+00	1.51611E+00	2.98018E-05
1.57954E+00	1.51610E+00	3.01471E-05
1.58425E+00	1.51610E+00	3.01157E-05
1.58898E+00	1.51609E+00	3.01621E-05
1.59374E+00	1.51609E+00	3.02755E-05
1.59853E+00	1.51608E+00	3.06988E-05
1.60335E+00	1.51607E+00	3.18483E-05
1.60820E+00	1.51606E+00	3.38063E-05
1.61308E+00	1.51605E+00	3.69219E-05
1.61798E+00	1.51603E+00	4.30624E-05
1.62292E+00	1.51599E+00	6.54630E-05
1.62789E+00	1.51598E+00	1.53378E-04
1.63289E+00	1.51611E+00	1.45767E-04
1.63792E+00	1.51609E+00	7.91113E-05
1.64298E+00	1.51607E+00	8.11383E-05
1.64807E+00	1.51606E+00	6.58133E-05
1.65319E+00	1.51603E+00	6.25088E-05
1.65835E+00	1.51600E+00	8.01572E-05
1.66353E+00	1.51597E+00	1.19256E-04
1.66875E+00	1.51598E+00	1.80233E-04
1.67401E+00	1.51604E+00	2.17955E-04
1.67929E+00	1.51608E+00	1.99304E-04
1.68461E+00	1.51610E+00	2.00341E-04
1.68997E+00	1.51614E+00	2.04061E-04
1.69535E+00	1.51617E+00	1.34150E-04
1.70077E+00	1.51615E+00	1.14249E-04
1.70623E+00	1.51615E+00	9.93648E-05
1.71172E+00	1.51614E+00	7.73899E-05
1.71725E+00	1.51613E+00	6.17682E-05
1.72281E+00	1.51611E+00	5.43096E-05
1.72841E+00	1.51610E+00	5.25689E-05
1.73405E+00	1.51609E+00	4.70336E-05
1.73972E+00	1.51608E+00	4.30526E-05
1.74543E+00	1.51607E+00	4.47353E-05
1.75118E+00	1.51606E+00	4.93122E-05
1.75696E+00	1.51606E+00	4.45138E-05
1.76279E+00	1.51605E+00	4.63875E-05
1.76865E+00	1.51605E+00	4.59149E-05
1.77455E+00	1.51604E+00	4.09978E-05
1.78049E+00	1.51603E+00	3.85957E-05
1.78647E+00	1.51602E+00	3.87409E-05
1.79249E+00	1.51602E+00	4.02894E-05
1.79856E+00	1.51601E+00	3.93178E-05
1.80466E+00	1.51600E+00	3.97605E-05
1.81080E+00	1.51600E+00	4.03503E-05
1.81699E+00	1.51599E+00	4.11538E-05
1.82322E+00	1.51599E+00	4.00057E-05
1.82949E+00	1.51598E+00	3.92650E-05
1.83581E+00	1.51598E+00	3.70984E-05
1.84217E+00	1.51597E+00	3.68352E-05
1.84857E+00	1.51596E+00	3.77096E-05
1.85502E+00	1.51595E+00	3.92987E-05
1.86151E+00	1.51595E+00	4.05588E-05
1.86805E+00	1.51594E+00	3.87430E-05
1.87463E+00	1.51594E+00	3.80347E-05
1.88127E+00	1.51593E+00	3.88382E-05
1.88794E+00	1.51592E+00	3.84192E-05
1.89467E+00	1.51592E+00	3.73212E-05
1.90144E+00	1.51591E+00	3.59297E-05
1.90827E+00	1.51590E+00	3.55768E-05
1.91514E+00	1.51589E+00	3.61270E-05
1.92206E+00	1.51588E+00	3.49373E-05
1.92903E+00	1.51588E+00	3.46060E-05
1.93606E+00	1.51587E+00	3.50799E-05
1.94313E+00	1.51586E+00	3.54753E-05
1.95025E+00	1.51585E+00	3.68033E-05
1.95743E+00	1.51584E+00	3.59461E-05
1.96466E+00	1.51583E+00	3.58237E-05
1.97195E+00	1.51582E+00	3.59627E-05
1.97929E+00	1.51581E+00	3.71929E-05
1.98668E+00	1.51580E+00	3.75554E-05
1.99413E+00	1.51579E+00	3.73374E-05
2.00164E+00	1.51578E+00	3.91765E-05
2.00920E+00	1.51576E+00	4.74957E-05
2.01682E+00	1.51576E+00	5.03306E-05
2.02450E+00	1.51575E+00	4.57260E-05
2.03223E+00	1.51574E+00	4.45819E-05
2.04003E+00	1.51572E+00	4.84207E-05
2.04788E+00	1.51571E+00	5.66165E-05
2.05580E+00	1.51571E+00	5.44665E-05
2.06378E+00	1.51569E+00	4.75343E-05
2.07182E+00	1.51567E+00	4.61487E-05
2.07992E+00	1.51565E+00	4.60423E-05
2.08809E+00	1.51562E+00	4.82414E-05
2.09632E+00	1.51559E+00	5.45644E-05
2.10461E+00	1.51554E+00	7.06204E-05
2.11298E+00	1.51547E+00	1.32950E-04
2.12140E+00	1.51562E+00	2.20148E-04
2.12990E+00	1.51555E+00	1.36632E-04
2.13846E+00	1.51545E+00	1.94674E-04
2.14710E+00	1.51560E+00	3.73199E-04
2.15580E+00	1.51562E+00	2.24880E-04
2.16458E+00	1.51558E+00	2.75477E-04
2.17342E+00	1.51570E+00	2.84998E-04
2.18234E+00	1.51567E+00	1.79223E-04
2.19133E+00	1.51556E+00	2.09195E-04
2.20040E+00	1.51560E+00	1.76430E-04
2.20954E+00	1.51558E+00	1.50879E-04
2.21876E+00	1.51547E+00	2.14995E-04
2.22806E+00	1.51558E+00	4.95332E-04
2.23743E+00	1.51572E+00	1.89682E-04
2.24688E+00	1.51564E+00	1.39693E-04
2.25642E+00	1.51554E+00	1.52924E-04
2.26603E+00	1.51550E+00	1.66090E-04
2.27573E+00	1.51542E+00	2.28032E-04
2.28551E+00	1.51555E+00	3.76165E-04
2.29537E+00	1.51557E+00	2.55056E-04
2.30532E+00	1.51555E+00	2.79327E-04
2.31536E+00	1.51559E+00	1.90294E-04
2.32548E+00	1.51548E+00	1.61655E-04
2.33570E+00	1.51543E+00	2.26472E-04
2.34600E+00	1.51547E+00	2.95692E-04
2.35639E+00	1.51554E+00	2.27614E-04
2.36688E+00	1.51548E+00	1.52709E-04
2.37746E+00	1.51541E+00	1.82084E-04
2.38814E+00	1.51538E+00	1.79665E-04
2.39891E+00	1.51534E+00	1.89057E-04
2.40978E+00	1.51523E+00	1.84939E-04
2.42075E+00	1.51516E+00	2.82781E-04
2.43182E+00	1.51513E+00	4.21851E-04
2.44299E+00	1.51518E+00	4.30687E-04
2.45426E+00	1.51511E+00	6.63131E-04
2.46564E+00	1.51540E+00	9.56458E-04
2.47713E+00	1.51589E+00	8.17225E-04
2.48872E+00	1.51578E+00	3.78253E-04
2.50042E+00	1.51568E+00	3.51455E-04
2.51223E+00	1.51564E+00	2.04530E-04
2.52416E+00	1.51557E+00	1.55449E-04
2.53619E+00	1.51549E+00	1.47020E-04
2.54835E+00	1.51542E+00	1.57923E-04
2.56062E+00	1.51540E+00	1.37767E-04
2.57300E+00	1.51535E+00	1.30137E-04
2.58551E+00	1.51528E+00	1.47777E-04
2.59814E+00	1.51528E+00	1.99256E-04
2.61090E+00	1.51528E+00	2.61875E-04
2.62378E+00	1.51528E+00	1.45870E-04
2.63679E+00	1.51523E+00	1.29630E-04
2.64993E+00	1.51520E+00	1.47899E-04
2.66320E+00	1.51515E+00	1.17342E-04
2.67660E+00	1.51508E+00	1.10095E-04
2.69014E+00	1.51509E+00	1.78487E-04
2.70382E+00	1.51504E+00	1.92246E-04
2.71764E+00	1.51499E+00	1.47277E-04
2.73159E+00	1.51491E+00	1.78974E-04
2.74570E+00	1.51504E+00	2.50459E-04
2.75995E+00	1.51494E+00	1.61934E-04
2.77434E+00	1.51493E+00	1.22619E-04
2.78889E+00	1.51485E+00	1.10468E-04
2.80359E+00	1.51478E+00	1.24151E-04
2.81845E+00	1.51476E+00	1.26349E-04
2.83347E+00	1.51471E+00	1.21394E-04
2.84865E+00	1.51465E+00	1.05186E-04
2.86399E+00	1.51458E+00	9.48382E-05
2.87949E+00	1.51451E+00	8.44780E-05
2.89517E+00	1.51442E+00	9.68775E-05
2.91102E+00	1.51438E+00	1.06752E-04
2.92704E+00	1.51429E+00	8.26065E-05
2.94324E+00	1.51419E+00	7.07933E-05
2.95962E+00	1.51407E+00	6.78965E-05
2.97618E+00	1.51394E+00	7.14115E-05
2.99293E+00	1.51380E+00	9.20326E-05
3.00987E+00	1.51367E+00	1.29065E-04
3.02700E+00	1.51353E+00	1.46022E-04
3.04433E+00	1.51336E+00	1.40723E-04
3.06185E+00	1.51314E+00	1.49006E-04
3.07958E+00	1.51292E+00	1.87617E-04
3.09752E+00	1.51261E+00	1.95923E-04
3.11567E+00	1.51223E+00	2.51567E-04
3.13403E+00	1.51180E+00	3.24778E-04
3.15261E+00	1.51119E+00	4.17980E-04
3.17141E+00	1.51028E+00	7.00972E-04
3.19043E+00	1.50920E+00	8.05556E-04
3.20969E+00	1.50650E+00	1.51395E-03
3.22918E+00	1.50281E+00	5.71366E-03
3.24891E+00	1.51528E+00	1.42068E-02
3.26888E+00	1.51367E+00	1.71236E-02
3.28909E+00	1.51408E+00	9.29155E-03
3.30956E+00	1.52423E+00	1.26051E-02
3.33028E+00	1.52519E+00	7.86771E-03
3.35127E+00	1.52187E+00	5.68677E-03
3.37252E+00	1.52265E+00	2.06001E-03
3.39405E+00	1.52044E+00	1.05610E-03
3.41585E+00	1.51951E+00	9.52111E-04
3.43793E+00	1.51889E+00	9.73630E-04
3.46030E+00	1.51865E+00	6.00459E-04
3.48296E+00	1.51822E+00	4.01696E-04
3.50592E+00	1.51785E+00	2.60537E-04
3.52919E+00	1.51746E+00	1.65713E-04
3.55276E+00	1.51713E+00	1.63645E-04
3.57666E+00	1.51705E+00	2.60227E-04
3.60087E+00	1.51686E+00	1.87958E-04
3.62542E+00	1.51664E+00	8.61065E-05
3.65030E+00	1.51646E+00	5.43221E-05
3.67553E+00	1.51628E+00	5.24601E-05
3.70111E+00	1.51611E+00	8.79677E-05
3.72705E+00	1.51600E+00	6.88723E-05
3.75335E+00	1.51585E+00	8.02257E-05
3.78003E+00	1.51575E+00	1.58958E-04
3.80709E+00	1.51568E+00	2.98330E-04
3.83454E+00	1.51562E+00	2.00696E-04
3.86239E+00	1.51572E+00	1.76422E-04
3.89065E+00	1.51557E+00	1.96969E-04
3.91932E+00	1.51538E+00	5.21992E-05
3.94842E+00	1.51524E+00	1.35820E-04
3.97795E+00	1.51516E+00	2.57482E-04
4.00793E+00	1.51517E+00	2.00028E-04
4.03836E+00	1.51510E+00	1.01734E-04
4.06926E+00	1.51495E+00	7.68135E-05
4.10064E+00	1.51484E+00	1.07108E-04
4.13251E+00	1.51472E+00	1.29959E-04
4.16487E+00	1.51466E+00	1.13702E-04
4.19774E+00	1.51446E+00	1.69678E-04
4.23114E+00	1.51449E+00	3.16768E-04
4.26507E+00	1.51428E+00	3.43227E-04
4.29955E+00	1.51443E+00	2.50656E-04
4.33460E+00	1.51462E+00	2.59102E-04
4.37022E+00	1.51431E+00	2.45155E-04
4.40643E+00	1.51412E+00	2.53501E-04
4.44324E+00	1.51418E+00	9.03762E-05
4.48068E+00	1.51405E+00	9.64245E-05
4.51875E+00	1.51387E+00	1.04732E-04
4.55747E+00	1.51368E+00	1.25000E-04
4.59687E+00	1.51369E+00	1.08764E-04
4.63695E+00	1.51348E+00	3.43837E-05
4.67773E+00	1.51330E+00	4.81503E-06
4.71924E+00	1.51307E+00	8.76217E-06
4.76149E+00	1.51291E+00	5.42048E-05
4.80451E+00	1.51266E+00	4.27701E-05
4.84831E+00	1.51244E+00	9.12251E-05
4.89292E+00	1.51216E+00	1.07952E-04
4.93835E+00	1.51185E+00	1.46107E-04
4.98464E+00	1.51130E+00	2.14415E-04
5.03180E+00	1.51052E+00	6.07638E-04
5.07986E+00	1.51002E+00	1.74084E-03
5.12885E+00	1.51123E+00	3.21577E-03
5.17880E+00	1.51268E+00	1.48895E-03
5.22972E+00	1.51115E+00	6.34550E-04
5.28166E+00	1.50994E+00	2.29374E-03
5.33464E+00	1.51162E+00	3.61655E-03
5.38870E+00	1.51061E+00	1.24518E-03
5.44386E+00	1.50866E+00	3.43888E-03
5.50016E+00	1.51199E+00	6.28561E-03
5.55764E+00	1.51456E+00	4.13297E-03
5.61633E+00	1.51244E+00	1.00862E-03
5.67627E+00	1.51095E+00	1.72102E-03
5.73751E+00	1.51238E+00	2.47595E-03
5.80009E+00	1.51108E+00	5.88871E-04
5.86404E+00	1.50905E+00	7.05791E-04
5.92942E+00	1.50949E+00	3.21996E-03
5.99628E+00	1.50753E+00	1.17884E-03
6.06466E+00	1.50349E+00	2.26005E-03
6.13461E+00	1.50641E+00	3.73228E-02
6.20620E+00	1.51318E+00	4.79760E-03
6.27948E+00	1.51312E+00	3.95700E-03
6.35451E+00	1.52045E+00	1.40967E-02
6.43136E+00	1.51196E+00	2.51915E-03
6.51009E+00	1.51053E+00	3.32088E-03
6.59077E+00	1.50584E+00	1.22144E-03
6.67347E+00	1.47753E+00	1.19889E-02
6.75828E+00	1.51940E+00	2.91052E-03
6.84526E+00	1.50782E+00	2.02682E-03
6.93452E+00	1.51937E+00	7.43194E-03
7.02614E+00	1.50909E+00	1.09088E-02
7.12021E+00	1.52512E+00	7.63680E-03
7.21683E+00	1.51708E+00	3.29537E-03
7.31611E+00	1.51493E+00	1.18598E-03
7.41816E+00	1.51167E+00	1.36708E-03
7.52310E+00	1.51257E+00	3.36351E-03
7.63105E+00	1.51299E+00	3.00193E-03
7.74214E+00	1.50937E+00	7.23152E-03
7.85651E+00	1.51263E+00	3.14769E-03
7.97432E+00	1.51138E+00	1.61558E-03
8.09571E+00	1.50878E+00	9.44104E-04
8.22085E+00	1.50513E+00	1.80616E-03
8.34992E+00	1.51175E+00	6.63989E-03
8.48311E+00	1.50857E+00	4.28478E-03
8.62062E+00	1.50538E+00	3.52694E-03
8.76266E+00	1.50525E+00	1.75564E-03
8.90946E+00	1.50163E+00	1.74599E-03
9.06127E+00	1.49891E+00	3.90616E-03
9.21833E+00	1.48734E+00	2.04533E-02
9.38094E+00	1.50032E+00	3.47690E-03
9.54938E+00	1.49198E+00	3.74132E-03
9.72399E+00	1.47824E+00	8.36376E-03
9.90510E+00	1.48093E+00	1.24119E-02
1.00931E+01	1.50613E+00	1.10782E-01
1.02883E+01	1.52678E+00	1.45466E-02
1.04913E+01	1.50147E+00	6.75751E-03
1.07024E+01	1.47433E+00	9.81191E-03
1.09222E+01	1.41522E+00	9.97309E-02
1.11512E+01	1.60178E+00	4.69930E-02
1.13901E+01	1.54366E+00	7.69013E-03
1.16394E+01	1.52399E+00	5.72107E-03
1.18998E+01	1.51279E+00	8.85380E-03
1.21722E+01	1.50092E+00	5.42875E-03
1.24573E+01	1.47767E+00	8.03727E-03
1.27561E+01	1.37492E+00	4.37018E-02
1.30696E+01	1.62378E+00	3.06145E-02
1.33988E+01	1.53989E+00	6.12625E-03
1.37451E+01	1.50159E+00	6.63766E-03
1.41098E+01	1.40191E+00	3.52034E-02
1.44944E+01	1.73697E+00	8.14975E-02
1.49005E+01	1.60803E+00	1.01183E-02
1.53300E+01	1.57601E+00	3.66511E-03
1.57850E+01	1.56212E+00	2.91837E-03
1.62679E+01	1.55567E+00	2.42067E-03
1.67812E+01	1.54878E+00	1.29878E-03
1.73280E+01	1.54190E+00	1.78782E-03
1.79116E+01	1.53189E+00	1.64639E-02
1.85358E+01	1.54974E+00	3.99850E-03
1.92052E+01	1.54280E+00	1.27047E-03
1.99247E+01	1.53849E+00	1.33186E-03
2.07003E+01	1.53450E+00	1.57767E-03
2.15387E+01	1.52616E+00	6.16759E-03
2.24478E+01	1.52776E+00	2.46568E-02
2.34371E+01	1.56060E+00	2.14502E-02
2.45175E+01	1.54833E+00	1.18222E-03
