Material: inorganic / Al2O3 / Boidin
Optical constants. R. Boidin, T. Halenkovič, V. Nazabal, L. Beneš, P. Němec. Pulsed laser deposited alumina thin films, Ceramics International 42, 1177-1182 (2016) (Numerical data kindly provided by Tomáš Halenkovič)
Comments: Thin films of amorphous alumina were fabricated using pulsed laser deposition in vacuum.Influence of deposition parameters, specifically deposition time under vacuum and partial pressure of argon, is discussed in the original publication.
wavelength (um)	n
0.30	1.73756
0.34	1.71886
0.38	1.70652
0.42	1.69791
0.46	1.69164
0.50	1.68691
0.54	1.68324
0.58	1.68031
0.62	1.67792
0.66	1.67594
0.70	1.67427
0.74	1.67283
0.78	1.67158
0.82	1.67047
0.86	1.66948
0.90	1.66858
0.94	1.66776
0.98	1.66699
1.02	1.66628
1.06	1.66561
1.10	1.66496
1.14	1.66435
1.18	1.66376
1.22	1.66318
1.26	1.66262
1.30	1.66207
1.34	1.66152
1.38	1.66099
1.42	1.66045
1.46	1.65992
1.50	1.65939
1.54	1.65886
1.58	1.65832
1.62	1.65778
1.66	1.65724
1.70	1.65670
1.74	1.65615
1.78	1.65559
1.82	1.65503
1.86	1.65446
1.90	1.65389
1.94	1.65330
1.98	1.65271
2.02	1.65211
2.06	1.65150
2.10	1.65089
2.14	1.65026
2.18	1.64962
2.22	1.64898
2.26	1.64832
2.30	1.64765
2.3398	1.64698
2.3784	1.64632
2.4183	1.64562
2.4596	1.64489
2.4975	1.64420
2.5366	1.64349
2.5770	1.64274
2.6186	1.64195
2.6562	1.64123
2.6949	1.64048
2.7347	1.63970
2.7756	1.63887
2.8179	1.63801
2.8551	1.63724
2.8998	1.63630
2.9393	1.63546
2.9798	1.63458
3.0145	1.63382
3.0571	1.63287
3.0936	1.63205
3.1386	1.63101
3.1770	1.63012
3.2164	1.62918
3.2569	1.62821
3.2983	1.62720
3.3322	1.62636
3.3756	1.62528
3.4111	1.62437
3.4566	1.62320
3.4939	1.62223
3.5320	1.62122
3.5709	1.62017
3.6107	1.61908
3.6513	1.61796
3.6930	1.61679
3.7355	1.61558
3.7791	1.61432
3.8124	1.61335
3.8578	1.61200
3.8926	1.61095
3.9399	1.60951
3.9762	1.60839
4.0131	1.60723
4.0507	1.60603
4.0890	1.60480
4.1281	1.60353
4.1679	1.60221
4.2085	1.60086
4.2499	1.59945
4.2921	1.59800
4.3352	1.59649
4.3791	1.59494
4.4089	1.59387
4.4544	1.59222
4.4852	1.59109
4.5323	1.58933
4.5642	1.58813
4.6129	1.58627
4.6460	1.58498
4.6965	1.58300
4.7308	1.58163
4.7655	1.58023
4.8187	1.57805
4.8548	1.57655
4.8914	1.57501
4.9286	1.57343
4.9664	1.57180
5.0047	1.57013
5.0437	1.56841
5.0832	1.56664
5.1234	1.56482
5.1643	1.56294
5.2057	1.56100
5.2479	1.55901
5.2907	1.55696
5.3343	1.55484
5.3785	1.55265
5.4235	1.55040
5.4693	1.54807
5.5159	1.54566
5.5632	1.54317
5.6114	1.54060
5.6604	1.53794
5.7103	1.53518
5.7610	1.53233
5.8127	1.52937
5.8653	1.52631
5.9188	1.52313
5.9734	1.51983
6.0290	1.51640
6.0856	1.51284
6.1433	1.50913
6.2020	1.50527
6.2620	1.50126
6.3231	1.49707
6.3854	1.49270
6.4489	1.48813
6.5137	1.48336
6.5798	1.47837
6.6473	1.47315
6.7162	1.46767
6.7865	1.46192
6.8583	1.45589
6.9317	1.44954
7.0066	1.44286
7.0832	1.43582
7.1615	1.42839
7.2415	1.42054
7.3233	1.41223
7.4070	1.40342
7.4926	1.39408
7.5803	1.38414
7.6700	1.37356
7.7618	1.36227
7.8559	1.35021
7.9523	1.33728
8.0511	1.32340
8.1524	1.30846
8.2562	1.29233
8.3628	1.27485
8.4721	1.25586
8.5843	1.23514
8.6995	1.21243
8.8179	1.18742
8.9395	1.15975
9.0645	1.12895
9.1931	1.09450
9.3254	1.05574
9.4615	1.01195
9.6017	0.96230
9.7461	0.90598
9.8949	0.84254
10.048	0.77268
10.207	0.70035
10.370	0.63567
10.538	0.59289
10.713	0.57913
10.893	0.59116
11.079	0.62301
11.272	0.67024
11.471	0.73004
11.678	0.80060
11.892	0.88053
12.114	0.96867
12.345	1.06385
12.585	1.16482
12.834	1.27028
13.093	1.37875
13.363	1.48873
13.645	1.59860
13.938	1.70675
14.244	1.81159
14.564	1.91161
14.899	2.00542
15.250	2.09184
15.617	2.16987
16.003	2.23881
16.408	2.29825
16.834	2.34808
17.283	2.38848
17.757	2.41997
