Material: organic / C2H6O - ethanol / Myers
Optical constants. T. L. Myers, R. G. Tonkyn, T. O. Danby, M. S. Taubman, B. E. Bernacki, J. C. Birnbaum, S. W. Sharpe, T. J. Johnson. Accurate measurement of the optical constants n and k for a series of 57 inorganic and organic liquids for optical modeling and detection, Appl. Spectrosc. 72, 535-550 (2018) (see Supplemental Material for numerical data)
Comments: 26 Â°C
Specs: {"n_absolute": true, "wavelength_vacuum": true, "temperature": "26 Â°C"}
wavelength (um)	n	k
1.28221E+00	1.34839E+00	3.90560E-05
1.28531E+00	1.34842E+00	3.88040E-05
1.28842E+00	1.34842E+00	3.86320E-05
1.29155E+00	1.34841E+00	3.88120E-05
1.29469E+00	1.34840E+00	3.84660E-05
1.29785E+00	1.34840E+00	3.80300E-05
1.30103E+00	1.34839E+00	3.69650E-05
1.30422E+00	1.34838E+00	3.69390E-05
1.30743E+00	1.34837E+00	3.64210E-05
1.31065E+00	1.34836E+00	3.59970E-05
1.31389E+00	1.34835E+00	3.57250E-05
1.31714E+00	1.34834E+00	3.54080E-05
1.32041E+00	1.34833E+00	3.53540E-05
1.32370E+00	1.34832E+00	3.47160E-05
1.32700E+00	1.34831E+00	3.47710E-05
1.33032E+00	1.34829E+00	3.45890E-05
1.33366E+00	1.34828E+00	3.41440E-05
1.33701E+00	1.34827E+00	3.42320E-05
1.34038E+00	1.34826E+00	3.46110E-05
1.34377E+00	1.34825E+00	3.49700E-05
1.34717E+00	1.34823E+00	3.55810E-05
1.35059E+00	1.34822E+00	3.64100E-05
1.35403E+00	1.34821E+00	3.89410E-05
1.35749E+00	1.34820E+00	4.11650E-05
1.36096E+00	1.34818E+00	4.06540E-05
1.36445E+00	1.34817E+00	4.10720E-05
1.36796E+00	1.34816E+00	4.17260E-05
1.37149E+00	1.34815E+00	4.38690E-05
1.37504E+00	1.34813E+00	4.53520E-05
1.37860E+00	1.34812E+00	4.53860E-05
1.38219E+00	1.34811E+00	4.40590E-05
1.38579E+00	1.34810E+00	4.47090E-05
1.38941E+00	1.34808E+00	4.50530E-05
1.39305E+00	1.34807E+00	4.51130E-05
1.39671E+00	1.34805E+00	4.53500E-05
1.40039E+00	1.34804E+00	4.64810E-05
1.40408E+00	1.34802E+00	4.93410E-05
1.40780E+00	1.34801E+00	5.14580E-05
1.41154E+00	1.34800E+00	5.25190E-05
1.41529E+00	1.34798E+00	5.13530E-05
1.41907E+00	1.34797E+00	5.16580E-05
1.42287E+00	1.34795E+00	5.19670E-05
1.42669E+00	1.34794E+00	5.35220E-05
1.43052E+00	1.34792E+00	5.43360E-05
1.43438E+00	1.34791E+00	5.47040E-05
1.43826E+00	1.34789E+00	5.55670E-05
1.44216E+00	1.34788E+00	5.67140E-05
1.44608E+00	1.34786E+00	5.86090E-05
1.45003E+00	1.34784E+00	5.99780E-05
1.45399E+00	1.34783E+00	6.25090E-05
1.45798E+00	1.34781E+00	6.41320E-05
1.46199E+00	1.34780E+00	6.65600E-05
1.46602E+00	1.34778E+00	6.80660E-05
1.47007E+00	1.34777E+00	6.95740E-05
1.47414E+00	1.34775E+00	7.06150E-05
1.47824E+00	1.34773E+00	7.16690E-05
1.48236E+00	1.34772E+00	7.34960E-05
1.48651E+00	1.34770E+00	7.44140E-05
1.49067E+00	1.34769E+00	7.59790E-05
1.49486E+00	1.34767E+00	7.61990E-05
1.49908E+00	1.34765E+00	7.74760E-05
1.50332E+00	1.34764E+00	7.75550E-05
1.50758E+00	1.34762E+00	7.82200E-05
1.51186E+00	1.34760E+00	7.78110E-05
1.51617E+00	1.34758E+00	7.81180E-05
1.52051E+00	1.34757E+00	7.81340E-05
1.52487E+00	1.34755E+00	7.79260E-05
1.52925E+00	1.34753E+00	7.81970E-05
1.53366E+00	1.34751E+00	7.78410E-05
1.53810E+00	1.34749E+00	7.87340E-05
1.54256E+00	1.34747E+00	7.85200E-05
1.54705E+00	1.34745E+00	7.98660E-05
1.55156E+00	1.34743E+00	8.05140E-05
1.55610E+00	1.34741E+00	8.20430E-05
1.56067E+00	1.34739E+00	8.29680E-05
1.56526E+00	1.34737E+00	8.43530E-05
1.56988E+00	1.34735E+00	8.57840E-05
1.57453E+00	1.34733E+00	8.64380E-05
1.57921E+00	1.34731E+00	8.74030E-05
1.58391E+00	1.34729E+00	8.66690E-05
1.58864E+00	1.34727E+00	8.62790E-05
1.59340E+00	1.34725E+00	8.38800E-05
1.59819E+00	1.34723E+00	8.19820E-05
1.60301E+00	1.34721E+00	7.82450E-05
1.60786E+00	1.34719E+00	7.53610E-05
1.61273E+00	1.34716E+00	7.16260E-05
1.61764E+00	1.34714E+00	6.74870E-05
1.62258E+00	1.34711E+00	6.36470E-05
1.62754E+00	1.34709E+00	5.92910E-05
1.63254E+00	1.34706E+00	5.63900E-05
1.63756E+00	1.34703E+00	5.21320E-05
1.64262E+00	1.34700E+00	4.99660E-05
1.64771E+00	1.34697E+00	4.69860E-05
1.65283E+00	1.34694E+00	4.58090E-05
1.65799E+00	1.34690E+00	4.42270E-05
1.66317E+00	1.34687E+00	4.42080E-05
1.66839E+00	1.34683E+00	4.59640E-05
1.67364E+00	1.34679E+00	5.15150E-05
1.67893E+00	1.34674E+00	7.29050E-05
1.68424E+00	1.34673E+00	1.06790E-04
1.68959E+00	1.34671E+00	1.03920E-04
1.69498E+00	1.34669E+00	1.22330E-04
1.70040E+00	1.34668E+00	1.12280E-04
1.70585E+00	1.34665E+00	1.02260E-04
1.71134E+00	1.34662E+00	1.00180E-04
1.71687E+00	1.34659E+00	1.01260E-04
1.72243E+00	1.34656E+00	9.79320E-05
1.72803E+00	1.34653E+00	1.03960E-04
1.73366E+00	1.34651E+00	1.17130E-04
1.73933E+00	1.34650E+00	1.05240E-04
1.74504E+00	1.34646E+00	8.22990E-05
1.75078E+00	1.34642E+00	7.41110E-05
1.75657E+00	1.34638E+00	7.17500E-05
1.76239E+00	1.34634E+00	7.78580E-05
1.76825E+00	1.34631E+00	7.39170E-05
1.77415E+00	1.34628E+00	6.48330E-05
1.78009E+00	1.34624E+00	5.79170E-05
1.78606E+00	1.34620E+00	5.26560E-05
1.79208E+00	1.34615E+00	4.94610E-05
1.79814E+00	1.34611E+00	4.65110E-05
1.80424E+00	1.34607E+00	4.52470E-05
1.81039E+00	1.34602E+00	4.23360E-05
1.81657E+00	1.34598E+00	4.25870E-05
1.82280E+00	1.34594E+00	4.13770E-05
1.82907E+00	1.34589E+00	3.87790E-05
1.83538E+00	1.34585E+00	3.49020E-05
1.84174E+00	1.34580E+00	3.25900E-05
1.84814E+00	1.34575E+00	3.03000E-05
1.85458E+00	1.34570E+00	2.52810E-05
1.86107E+00	1.34565E+00	2.27030E-05
1.86761E+00	1.34560E+00	1.96380E-05
1.87419E+00	1.34555E+00	1.93710E-05
1.88082E+00	1.34549E+00	1.82200E-05
1.88750E+00	1.34544E+00	1.98170E-05
1.89422E+00	1.34538E+00	2.02120E-05
1.90099E+00	1.34533E+00	1.90260E-05
1.90781E+00	1.34527E+00	1.89480E-05
1.91468E+00	1.34521E+00	1.92180E-05
1.92160E+00	1.34515E+00	2.12540E-05
1.92857E+00	1.34509E+00	2.07490E-05
1.93559E+00	1.34503E+00	2.12910E-05
1.94266E+00	1.34497E+00	2.10220E-05
1.94978E+00	1.34491E+00	2.00190E-05
1.95696E+00	1.34484E+00	1.78290E-05
1.96418E+00	1.34477E+00	1.58730E-05
1.97147E+00	1.34470E+00	1.54850E-05
1.97880E+00	1.34463E+00	1.36210E-05
1.98619E+00	1.34455E+00	1.45120E-05
1.99364E+00	1.34447E+00	1.58180E-05
2.00114E+00	1.34439E+00	2.10070E-05
2.00870E+00	1.34431E+00	2.61240E-05
2.01632E+00	1.34423E+00	3.54430E-05
2.02399E+00	1.34414E+00	4.89260E-05
2.03172E+00	1.34406E+00	6.32120E-05
2.03951E+00	1.34397E+00	8.35550E-05
2.04737E+00	1.34389E+00	1.07450E-04
2.05528E+00	1.34382E+00	1.31620E-04
2.06325E+00	1.34375E+00	1.52410E-04
2.07129E+00	1.34368E+00	1.69850E-04
2.07939E+00	1.34362E+00	1.77280E-04
2.08755E+00	1.34356E+00	1.74840E-04
2.09578E+00	1.34349E+00	1.63950E-04
2.10407E+00	1.34341E+00	1.49310E-04
2.11243E+00	1.34332E+00	1.34540E-04
2.12085E+00	1.34322E+00	1.16020E-04
2.12935E+00	1.34312E+00	1.00030E-04
2.13791E+00	1.34301E+00	8.50470E-05
2.14654E+00	1.34289E+00	7.18970E-05
2.15524E+00	1.34277E+00	5.96750E-05
2.16401E+00	1.34264E+00	5.22130E-05
2.17285E+00	1.34251E+00	4.81630E-05
2.18176E+00	1.34237E+00	4.43810E-05
2.19075E+00	1.34223E+00	3.81410E-05
2.19981E+00	1.34207E+00	3.49390E-05
2.20895E+00	1.34191E+00	3.71990E-05
2.21817E+00	1.34174E+00	4.29260E-05
2.22746E+00	1.34155E+00	5.72450E-05
2.23683E+00	1.34134E+00	8.64800E-05
2.24628E+00	1.34111E+00	1.41710E-04
2.25580E+00	1.34084E+00	2.78170E-04
2.26541E+00	1.34074E+00	5.98810E-04
2.27511E+00	1.34085E+00	6.77480E-04
2.28488E+00	1.34081E+00	5.64750E-04
2.29474E+00	1.34055E+00	5.47010E-04
2.30469E+00	1.34045E+00	8.45550E-04
2.31472E+00	1.34071E+00	7.20980E-04
2.32484E+00	1.34053E+00	4.50100E-04
2.33505E+00	1.34024E+00	3.27270E-04
2.34534E+00	1.33991E+00	3.50200E-04
2.35573E+00	1.33983E+00	4.51630E-04
2.36622E+00	1.33964E+00	2.83190E-04
2.37679E+00	1.33934E+00	2.38870E-04
2.38746E+00	1.33905E+00	2.17020E-04
2.39823E+00	1.33876E+00	2.49870E-04
2.40909E+00	1.33850E+00	2.64030E-04
2.42006E+00	1.33823E+00	2.69030E-04
2.43112E+00	1.33790E+00	2.61540E-04
2.44229E+00	1.33756E+00	3.18150E-04
2.45355E+00	1.33724E+00	4.21380E-04
2.46493E+00	1.33705E+00	5.21240E-04
2.47641E+00	1.33677E+00	4.59080E-04
2.48799E+00	1.33651E+00	4.87330E-04
2.49969E+00	1.33617E+00	4.30720E-04
2.51149E+00	1.33585E+00	3.96760E-04
2.52341E+00	1.33548E+00	2.88860E-04
2.53544E+00	1.33501E+00	1.85990E-04
2.54759E+00	1.33450E+00	1.13250E-04
2.55985E+00	1.33393E+00	5.43140E-05
2.57223E+00	1.33331E+00	3.23550E-05
2.58473E+00	1.33266E+00	5.34380E-05
2.59736E+00	1.33205E+00	8.58310E-05
2.61011E+00	1.33133E+00	4.52330E-05
2.62298E+00	1.33056E+00	6.92490E-05
2.63598E+00	1.32975E+00	7.40000E-05
2.64912E+00	1.32885E+00	9.65640E-05
2.66238E+00	1.32788E+00	1.11100E-04
2.67577E+00	1.32679E+00	1.16330E-04
2.68931E+00	1.32557E+00	1.42370E-04
2.70298E+00	1.32419E+00	1.62810E-04
2.71678E+00	1.32258E+00	2.15770E-04
2.73074E+00	1.32067E+00	3.36900E-04
2.74483E+00	1.31845E+00	7.07030E-04
2.75907E+00	1.31602E+00	1.25300E-03
2.77346E+00	1.31306E+00	2.09000E-03
2.78800E+00	1.30987E+00	3.42560E-03
2.80270E+00	1.30627E+00	5.29940E-03
2.81755E+00	1.30229E+00	8.33190E-03
2.83255E+00	1.29834E+00	1.24430E-02
2.84772E+00	1.29485E+00	1.78480E-02
2.86305E+00	1.29207E+00	2.43450E-02
2.87855E+00	1.29030E+00	3.20140E-02
2.89422E+00	1.29017E+00	4.05960E-02
2.91006E+00	1.29164E+00	4.94170E-02
2.92607E+00	1.29453E+00	5.85010E-02
2.94226E+00	1.29965E+00	6.81850E-02
2.95863E+00	1.30777E+00	7.72700E-02
2.97518E+00	1.31895E+00	8.42120E-02
2.99192E+00	1.33185E+00	8.75500E-02
3.00885E+00	1.34461E+00	8.71540E-02
3.02597E+00	1.35616E+00	8.39600E-02
3.04328E+00	1.36586E+00	7.85810E-02
3.06080E+00	1.37394E+00	7.18660E-02
3.07852E+00	1.38007E+00	6.39790E-02
3.09645E+00	1.38417E+00	5.53370E-02
3.11458E+00	1.38589E+00	4.65740E-02
3.13293E+00	1.38554E+00	3.85540E-02
3.15150E+00	1.38369E+00	3.16300E-02
3.17029E+00	1.38085E+00	2.58820E-02
3.18930E+00	1.37740E+00	2.12130E-02
3.20854E+00	1.37347E+00	1.75400E-02
3.22802E+00	1.36913E+00	1.46970E-02
3.24773E+00	1.36442E+00	1.26540E-02
3.26769E+00	1.35904E+00	1.12140E-02
3.28789E+00	1.35247E+00	1.06740E-02
3.30835E+00	1.34355E+00	1.15320E-02
3.32906E+00	1.32884E+00	1.63250E-02
3.35003E+00	1.30040E+00	5.19660E-02
3.37127E+00	1.39165E+00	7.22820E-02
3.39278E+00	1.36656E+00	3.55600E-02
3.41456E+00	1.36478E+00	4.78630E-02
3.43663E+00	1.36664E+00	4.46250E-02
3.45898E+00	1.37532E+00	5.38700E-02
3.48163E+00	1.39505E+00	4.98160E-02
3.50457E+00	1.39772E+00	3.02360E-02
3.52782E+00	1.39342E+00	2.19530E-02
3.55138E+00	1.38986E+00	1.67340E-02
3.57526E+00	1.38704E+00	1.24780E-02
3.59946E+00	1.38284E+00	9.94040E-03
3.62399E+00	1.37968E+00	9.46390E-03
3.64885E+00	1.37842E+00	9.33230E-03
3.67406E+00	1.37782E+00	8.56810E-03
3.69962E+00	1.37682E+00	7.13350E-03
3.72554E+00	1.37567E+00	5.47850E-03
3.75183E+00	1.37380E+00	4.27720E-03
3.77849E+00	1.37209E+00	3.89040E-03
3.80552E+00	1.37079E+00	3.64990E-03
3.83295E+00	1.36966E+00	3.38520E-03
3.86078E+00	1.36855E+00	3.22180E-03
3.88902E+00	1.36744E+00	3.20320E-03
3.91767E+00	1.36652E+00	3.68680E-03
3.94674E+00	1.36657E+00	3.90470E-03
3.97625E+00	1.36622E+00	3.66060E-03
4.00621E+00	1.36620E+00	3.48750E-03
4.03662E+00	1.36604E+00	2.68280E-03
4.06749E+00	1.36532E+00	1.86510E-03
4.09885E+00	1.36420E+00	1.46520E-03
4.13068E+00	1.36332E+00	1.73020E-03
4.16302E+00	1.36326E+00	1.61550E-03
4.19587E+00	1.36266E+00	1.15220E-03
4.22924E+00	1.36201E+00	1.09840E-03
4.26314E+00	1.36161E+00	8.08860E-04
4.29759E+00	1.36094E+00	5.27020E-04
4.33261E+00	1.36018E+00	3.90120E-04
4.36820E+00	1.35944E+00	4.24050E-04
4.40438E+00	1.35873E+00	6.55630E-04
4.44116E+00	1.35886E+00	1.02820E-03
4.47856E+00	1.35837E+00	5.86140E-04
4.51660E+00	1.35784E+00	5.36930E-04
4.55529E+00	1.35732E+00	4.82690E-04
4.59465E+00	1.35687E+00	5.27950E-04
4.63469E+00	1.35633E+00	5.33440E-04
4.67544E+00	1.35597E+00	9.01790E-04
4.71691E+00	1.35601E+00	6.07460E-04
4.75912E+00	1.35536E+00	4.21800E-04
4.80210E+00	1.35505E+00	4.34720E-04
4.84586E+00	1.35458E+00	1.56610E-04
4.89042E+00	1.35393E+00	6.60010E-05
4.93581E+00	1.35329E+00	6.48870E-05
4.98206E+00	1.35263E+00	1.22390E-04
5.02917E+00	1.35192E+00	3.17820E-04
5.07719E+00	1.35143E+00	6.22980E-04
5.12613E+00	1.35063E+00	7.51160E-04
5.17603E+00	1.34969E+00	2.69530E-03
5.22690E+00	1.35230E+00	1.88740E-03
5.27879E+00	1.35133E+00	7.38490E-04
5.33171E+00	1.35045E+00	4.72730E-04
5.38571E+00	1.34967E+00	3.78100E-04
5.44081E+00	1.34892E+00	3.52970E-04
5.49705E+00	1.34814E+00	3.63040E-04
5.55447E+00	1.34734E+00	4.47700E-04
5.61310E+00	1.34653E+00	7.12000E-04
5.67298E+00	1.34606E+00	1.10760E-03
5.73415E+00	1.34569E+00	7.22400E-04
5.79666E+00	1.34464E+00	5.78890E-04
5.86054E+00	1.34364E+00	6.07680E-04
5.92584E+00	1.34257E+00	5.91100E-04
5.99262E+00	1.34133E+00	6.23580E-04
6.06092E+00	1.33993E+00	6.65930E-04
6.13080E+00	1.33828E+00	8.82080E-04
6.20230E+00	1.33658E+00	1.26650E-03
6.27550E+00	1.33450E+00	1.55000E-03
6.35044E+00	1.33200E+00	2.19760E-03
6.42719E+00	1.32921E+00	3.14490E-03
6.50582E+00	1.32540E+00	4.34800E-03
6.58640E+00	1.32040E+00	6.86360E-03
6.66900E+00	1.31352E+00	1.26030E-02
6.75369E+00	1.31351E+00	2.47570E-02
6.84057E+00	1.31133E+00	3.91470E-02
6.92971E+00	1.33005E+00	4.21940E-02
7.02120E+00	1.33405E+00	4.45540E-02
7.11514E+00	1.34054E+00	4.12630E-02
7.21164E+00	1.33522E+00	5.12000E-02
7.31078E+00	1.36848E+00	3.48420E-02
7.41269E+00	1.35146E+00	2.96960E-02
7.51747E+00	1.35393E+00	3.50790E-02
7.62527E+00	1.36078E+00	2.98120E-02
7.73620E+00	1.35734E+00	2.03210E-02
7.85040E+00	1.35595E+00	2.65640E-02
7.96803E+00	1.35595E+00	1.39880E-02
8.08924E+00	1.34960E+00	1.10730E-02
8.21419E+00	1.34369E+00	8.63960E-03
8.34306E+00	1.33561E+00	7.30070E-03
8.47604E+00	1.32603E+00	7.74750E-03
8.61333E+00	1.31412E+00	1.14280E-02
8.75513E+00	1.30141E+00	1.52060E-02
8.90169E+00	1.27714E+00	2.27670E-02
9.05324E+00	1.21189E+00	6.54580E-02
9.21003E+00	1.35117E+00	1.89930E-01
9.37235E+00	1.29868E+00	9.02920E-02
9.54050E+00	1.49728E+00	3.96440E-01
9.71479E+00	1.53027E+00	5.27470E-02
9.89556E+00	1.46032E+00	1.27290E-02
1.00832E+01	1.42866E+00	4.96090E-03
1.02781E+01	1.40977E+00	2.08900E-03
1.04806E+01	1.39621E+00	1.07100E-03
1.06914E+01	1.38382E+00	3.88670E-05
1.09107E+01	1.36816E+00	1.26670E-03
1.11393E+01	1.33638E+00	1.32070E-02
1.13776E+01	1.44390E+00	1.31800E-01
1.16263E+01	1.41023E+00	3.86000E-03
1.18862E+01	1.38653E+00	2.18220E-03
1.21580E+01	1.37348E+00	5.72860E-03
1.24424E+01	1.37191E+00	2.18280E-02
1.27405E+01	1.37069E+00	1.33280E-02
1.30532E+01	1.36528E+00	1.73610E-02
1.33817E+01	1.36277E+00	2.29940E-02
1.37271E+01	1.36248E+00	2.91410E-02
1.40909E+01	1.36444E+00	3.53980E-02
1.44744E+01	1.36872E+00	4.09440E-02
1.48794E+01	1.37505E+00	4.51330E-02
1.53077E+01	1.38312E+00	4.68180E-02
1.57614E+01	1.39159E+00	4.53780E-02
1.62429E+01	1.39900E+00	4.09920E-02
1.67546E+01	1.40432E+00	3.42620E-02
1.72997E+01	1.40694E+00	2.65070E-02
1.78814E+01	1.40676E+00	1.86610E-02
1.85036E+01	1.40416E+00	1.16470E-02
1.91706E+01	1.39932E+00	6.06380E-03
1.98876E+01	1.39274E+00	2.64910E-03
2.06602E+01	1.38414E+00	1.93910E-03
2.14953E+01	1.37349E+00	7.22550E-03
2.24008E+01	1.36628E+00	2.56710E-02
2.33859E+01	1.39667E+00	4.81650E-02
2.44616E+01	1.40804E+00	3.50110E-02
