Material: glass / schott / BAFN6
Optical constants. SCHOTT Zemax catalog 2017-01-20b (obtained from http://www.schott.com)See also SCHOTT glass data sheets
Comments: inquiry glass
Specs: {"n_absolute": false, "wavelength_vacuum": false, "temperature": "20.0 °C", "thermal_dispersion": [{"type": "Schott formula", "coefficients": "1.34e-06 1.34e-08 -5.5e-11 4.95e-07 3.62e-10 0.265"}], "nd": 1.589, "Vd": 48.45, "glass_code": 589485.317, "glass_status": "special", "density": "3.17 g/cm3", "thermal_expansion": [{"temperature_range": "-30 70 °C", "coefficient": "7.8e-06 K-1"}, {"temperature_range": "20 300 °C", "coefficient": "8.5e-06 K-1"}], "dPgF": 0.0002, "climatic_resistance": 2.0, "stain_resistance": 0.0, "acid_resistance": 2.0, "alkali_resistance": 2.0, "phosphate_resistance": 1.0}
Dispersion formula 2, range 0.35 2.325 um, coefficients 0 1.36719201 0.00882820704 0.10907994 0.0438731646 1.02108011 113.58602
wavelength (um)	k
0.350	2.3622E-06
0.365	6.7365E-07
0.370	4.7166E-07
0.380	2.5488E-07
0.390	1.4467E-07
0.400	9.2400E-08
0.405	7.9767E-08
0.420	6.2957E-08
0.436	5.2324E-08
0.460	3.7071E-08
0.500	2.2439E-08
0.546	1.5713E-08
0.580	1.1111E-08
0.620	1.1877E-08
0.660	1.0531E-08
0.700	6.6946E-09
1.060	1.6913E-08
1.530	2.4412E-08
1.970	3.8800E-07
2.325	1.8388E-06
