Material: glass / schott / FK3
Optical constants. SCHOTT Zemax catalog 2017-01-20b (obtained from http://www.schott.com)See also SCHOTT glass data sheets
Comments: inquiry glass
Specs: {"n_absolute": false, "wavelength_vacuum": false, "temperature": "20.0 °C", "thermal_dispersion": [{"type": "Schott formula", "coefficients": "-4.9e-06 1.23e-08 -1.19e-10 3.45e-07 7.72e-10 0.18"}], "nd": 1.4645, "Vd": 65.77, "glass_code": 464658.227, "glass_status": "special", "density": "2.27 g/cm3", "thermal_expansion": [{"temperature_range": "-30 70 °C", "coefficient": "8.2e-06 K-1"}, {"temperature_range": "20 300 °C", "coefficient": "9.4e-06 K-1"}], "dPgF": -0.0003, "climatic_resistance": 2.0, "stain_resistance": 3.0, "acid_resistance": 52.4, "alkali_resistance": 2.0, "phosphate_resistance": 1.0}
Dispersion formula 2, range 0.3 2.5 um, coefficients 0 0.973346627 0.00640795469 0.146642231 0.020565293 0.679304225 80.4965389
wavelength (um)	k
0.300	2.8607E-06
0.310	1.6387E-06
0.320	9.0817E-07
0.334	3.2012E-07
0.350	1.2983E-07
0.365	4.2597E-08
0.370	3.4660E-08
0.380	2.4437E-08
0.390	2.0023E-08
0.400	1.9243E-08
0.405	1.8176E-08
0.420	1.7494E-08
0.436	1.5351E-08
0.460	1.4716E-08
0.500	1.1180E-08
0.546	1.2209E-08
0.580	1.2969E-08
0.620	1.3863E-08
0.660	1.4758E-08
0.700	1.5652E-08
1.060	1.6913E-08
1.530	1.4834E-07
1.970	4.5507E-07
2.325	3.9049E-06
2.500	8.5849E-06
