Material: glass / schott / K7
Optical constants. SCHOTT Zemax catalog 2017-01-20b (obtained from http://www.schott.com)See also SCHOTT glass data sheets
Comments: 
Specs: {"n_absolute": false, "wavelength_vacuum": false, "temperature": "20.0 °C", "thermal_dispersion": [{"type": "Schott formula", "coefficients": "-1.67e-06 8.8e-09 -2.86e-11 5.42e-07 7.81e-10 0.172"}], "nd": 1.51112, "Vd": 60.41, "glass_code": 511604.253, "glass_status": "standard", "density": "2.53 g/cm3", "thermal_expansion": [{"temperature_range": "-30 70 °C", "coefficient": "8.4e-06 K-1"}, {"temperature_range": "20 300 °C", "coefficient": "9.7e-06 K-1"}], "climatic_resistance": 3.0, "stain_resistance": 0.0, "acid_resistance": 2.0, "alkali_resistance": 1.0, "phosphate_resistance": 2.3}
Dispersion formula 2, range 0.31 2.5 um, coefficients 0 1.1273555 0.00720341707 0.124412303 0.0269835916 0.827100531 100.384588
wavelength (um)	k
0.310	2.2721E-06
0.320	8.8363E-07
0.334	2.6415E-07
0.350	6.8934E-08
0.365	3.4191E-08
0.370	2.8611E-08
0.380	2.0740E-08
0.390	1.4987E-08
0.400	1.2796E-08
0.405	1.2956E-08
0.420	1.3436E-08
0.436	1.3948E-08
0.460	1.4716E-08
0.500	1.1180E-08
0.546	1.0459E-08
0.580	1.1111E-08
0.620	9.8924E-09
0.660	1.0531E-08
0.700	8.9305E-09
1.060	2.0305E-08
1.530	9.8390E-08
1.970	1.4781E-06
2.325	5.1298E-06
2.500	8.5849E-06
