Material: glass / schott / KZFSN4
Optical constants. SCHOTT Zemax catalog 2017-01-20b (obtained from http://www.schott.com)See also SCHOTT glass data sheets
Comments: was replaced by N-KZFS4
Specs: {"n_absolute": false, "wavelength_vacuum": false, "temperature": "20.0 °C", "thermal_dispersion": [{"type": "Schott formula", "coefficients": "6.01e-06 1.3e-08 -7.94e-11 4.05e-07 7.23e-10 0.272"}], "nd": 1.6134, "Vd": 44.29, "glass_code": 613443.32, "glass_status": "preferred", "density": "3.2 g/cm3", "thermal_expansion": [{"temperature_range": "-30 70 °C", "coefficient": "4.5e-06 K-1"}, {"temperature_range": "20 300 °C", "coefficient": "5.5e-06 K-1"}], "dPgF": -0.0086, "climatic_resistance": 3.0, "stain_resistance": 2.0, "acid_resistance": 52.3, "alkali_resistance": 4.3, "phosphate_resistance": 4.3}
Dispersion formula 2, range 0.31 2.5 um, coefficients 0 1.37994218 0.00891159699 0.168496708 0.040533407 0.874885726 69.6628237
wavelength (um)	k
0.310	3.4601E-06
0.320	1.8667E-06
0.334	7.5840E-07
0.350	3.6598E-07
0.365	1.6180E-07
0.370	1.2409E-07
0.380	7.6131E-08
0.390	4.8093E-08
0.400	3.3542E-08
0.405	2.8678E-08
0.420	1.8849E-08
0.436	1.5351E-08
0.460	1.1761E-08
0.500	7.9777E-09
0.546	8.7117E-09
0.580	9.2541E-09
0.620	9.8924E-09
0.660	1.0531E-08
0.700	1.1169E-08
1.060	1.6913E-08
1.530	3.0134E-07
1.970	1.3214E-06
2.325	9.4208E-06
2.500	2.3839E-05
