Material: glass / schott / LLF1HTi
Optical constants. SCHOTT Zemax catalog 2017-01-20b (obtained from http://www.schott.com)See also SCHOTT glass data sheets
Comments: i-line glass
Specs: {"n_absolute": false, "wavelength_vacuum": false, "temperature": "20.0 °C", "thermal_dispersion": [{"type": "Schott formula", "coefficients": "2.55e-07 1.41e-08 -3.32e-11 6.74e-07 6.27e-10 0.227"}], "nd": 1.54815, "Vd": 45.9, "glass_code": 548459.294, "glass_status": "standard", "density": "2.94 g/cm3", "thermal_expansion": [{"temperature_range": "-30 70 °C", "coefficient": "8.1e-06 K-1"}, {"temperature_range": "20 300 °C", "coefficient": "9.2e-06 K-1"}], "dPgF": -0.001, "climatic_resistance": 1.0, "stain_resistance": 0.0, "acid_resistance": 1.0, "alkali_resistance": 2.0, "phosphate_resistance": 1.0}
Dispersion formula 2, range 0.3 2.5 um, coefficients 0 1.22510445 0.00870432098 0.125155671 0.0427325235 0.892236751 108.049968
wavelength (um)	k
0.310	3.6013E-06
0.320	8.3393E-07
0.334	1.2151E-07
0.350	2.0236E-08
0.365	8.2129E-09
0.370	6.9717E-09
0.380	5.7640E-09
0.390	4.8485E-09
0.400	4.3722E-09
0.405	4.2755E-09
0.420	4.0556E-09
0.436	3.9150E-09
0.460	3.6343E-09
0.500	3.2596E-09
0.546	2.8683E-09
0.580	2.9082E-09
0.620	3.1187E-09
0.660	3.1599E-09
0.700	2.7803E-09
1.060	2.1804E-09
1.530	4.8966E-08
1.970	1.1450E-06
2.325	4.0446E-06
2.500	5.8925E-06
