Material: glass / schott / N-K5
Optical constants. SCHOTT Zemax catalog 2017-01-20b (obtained from http://www.schott.com)See also SCHOTT glass data sheets
Comments: 
Specs: {"n_absolute": false, "wavelength_vacuum": false, "temperature": "20.0 °C", "thermal_dispersion": [{"type": "Schott formula", "coefficients": "-4.13e-07 1.03e-08 -3.4e-11 4.73e-07 5.19e-10 0.213"}], "nd": 1.52249, "Vd": 59.48, "glass_code": 522595.259, "glass_status": "standard", "density": "2.59 g/cm3", "thermal_expansion": [{"temperature_range": "-30 70 °C", "coefficient": "8.2e-06 K-1"}, {"temperature_range": "20 300 °C", "coefficient": "9.6e-06 K-1"}], "climatic_resistance": 1.0, "stain_resistance": 0.0, "acid_resistance": 1.0, "alkali_resistance": 1.0, "phosphate_resistance": 1.0}
Dispersion formula 2, range 0.31 2.5 um, coefficients 0 1.08511833 0.00661099503 0.199562005 0.024110866 0.930511663 111.982777
wavelength (um)	k
0.310	3.8602E-06
0.320	1.5897E-06
0.334	4.9122E-07
0.350	1.4242E-07
0.365	5.2279E-08
0.370	4.5627E-08
0.380	2.8145E-08
0.390	2.0023E-08
0.400	1.5371E-08
0.405	1.4259E-08
0.420	1.2087E-08
0.436	1.2547E-08
0.460	1.3238E-08
0.500	1.1180E-08
0.546	8.7117E-09
0.580	9.2541E-09
0.620	1.3863E-08
0.660	1.6874E-08
0.700	1.3409E-08
1.060	1.6913E-08
1.530	6.8664E-08
1.970	8.7327E-07
2.325	3.0751E-06
2.500	5.0522E-06
