Material: glass / schott / N-KZFS2
Optical constants. SCHOTT Zemax catalog 2017-01-20b (obtained from http://www.schott.com)See also SCHOTT glass data sheets
Comments: suitable for precision molding. step 0.5 available
Specs: {"n_absolute": false, "wavelength_vacuum": false, "temperature": "20.0 °C", "thermal_dispersion": [{"type": "Schott formula", "coefficients": "6.77e-06 1.31e-08 -1.23e-11 3.84e-07 5.51e-10 0.196"}], "nd": 1.55836, "Vd": 54.01, "glass_code": 558540.255, "glass_status": "standard", "density": "2.54 g/cm3", "thermal_expansion": [{"temperature_range": "-30 70 °C", "coefficient": "4.44e-06 K-1"}, {"temperature_range": "20 300 °C", "coefficient": "5.4e-06 K-1"}], "dPgF": -0.0111, "climatic_resistance": 1.0, "stain_resistance": 4.0, "acid_resistance": 52.3, "alkali_resistance": 4.3, "phosphate_resistance": 4.2}
Dispersion formula 2, range 0.31 2.5 um, coefficients 0 1.23697554 0.00747170505 0.153569376 0.0308053556 0.903976272 70.1731084
wavelength (um)	k
0.310	3.4601E-06
0.320	1.4536E-06
0.334	5.6096E-07
0.350	2.4860E-07
0.365	1.3539E-07
0.370	1.1107E-07
0.380	8.7780E-08
0.390	6.3676E-08
0.400	4.8004E-08
0.405	4.3260E-08
0.420	3.3847E-08
0.436	2.6623E-08
0.460	1.9160E-08
0.500	1.2784E-08
0.546	1.0459E-08
0.580	1.1111E-08
0.620	1.1877E-08
0.660	1.2643E-08
0.700	8.9305E-09
1.060	3.0504E-08
1.530	3.0134E-07
1.970	1.3993E-06
2.325	9.9693E-06
2.500	2.5615E-05
