Material: glass / schott / N-KZFS4HT
Optical constants. SCHOTT Zemax catalog 2017-01-20b (obtained from http://www.schott.com)See also SCHOTT glass data sheets
Comments: suitable for precision molding. step 0.5 available
Specs: {"n_absolute": false, "wavelength_vacuum": false, "temperature": "20.0 °C", "thermal_dispersion": [{"type": "Schott formula", "coefficients": "1.81e-06 1.16e-08 -7.99e-12 6.2e-07 7.94e-10 0.205"}], "nd": 1.61336, "Vd": 44.49, "glass_code": 613445.3, "glass_status": "standard", "density": "3.002 g/cm3", "thermal_expansion": [{"temperature_range": "-30 70 °C", "coefficient": "7.3e-06 K-1"}, {"temperature_range": "20 300 °C", "coefficient": "8.2e-06 K-1"}], "dPgF": -0.01, "climatic_resistance": 1.0, "stain_resistance": 1.0, "acid_resistance": 3.4, "alkali_resistance": 1.2, "phosphate_resistance": 1.0}
Dispersion formula 2, range 0.32 2.5 um, coefficients 0 1.35055424 0.0087628207 0.197575506 0.0371767201 1.09962992 90.3866994
wavelength (um)	k
0.320	6.3301E-06
0.334	1.5954E-06
0.350	3.9737E-07
0.365	1.5647E-07
0.370	1.2278E-07
0.380	8.2589E-08
0.390	6.2370E-08
0.400	4.9326E-08
0.405	4.4594E-08
0.420	3.9343E-08
0.436	3.5137E-08
0.460	2.9581E-08
0.500	1.9214E-08
0.546	1.2209E-08
0.580	1.2969E-08
0.620	1.5852E-08
0.660	1.4758E-08
0.700	1.3409E-08
1.060	3.3758E-09
1.530	1.9374E-07
1.970	7.9448E-07
2.325	5.3400E-06
2.500	1.3385E-05
