Material: glass / schott / N-LAF2
Optical constants. SCHOTT Zemax catalog 2017-01-20b (obtained from http://www.schott.com)See also SCHOTT glass data sheets
Comments: 
Specs: {"n_absolute": false, "wavelength_vacuum": false, "temperature": "20.0 °C", "thermal_dispersion": [{"type": "Schott formula", "coefficients": "-3.64e-06 9.2e-09 -6e-12 6.43e-07 6.11e-10 0.22"}], "nd": 1.74397, "Vd": 44.85, "glass_code": 744449.43, "glass_status": "standard", "density": "4.295 g/cm3", "thermal_expansion": [{"temperature_range": "-30 70 °C", "coefficient": "8.06e-06 K-1"}, {"temperature_range": "20 300 °C", "coefficient": "9.1e-06 K-1"}], "dPgF": -0.0027, "climatic_resistance": 2.0, "stain_resistance": 3.0, "acid_resistance": 52.2, "alkali_resistance": 1.0, "phosphate_resistance": 2.2}
Dispersion formula 2, range 0.35 2.5 um, coefficients 0 1.80984227 0.0101711622 0.15729555 0.0442431765 1.0930037 100.687748
wavelength (um)	k
0.350	4.1097E-06
0.365	1.3607E-06
0.370	9.9398E-07
0.380	5.5887E-07
0.390	3.4069E-07
0.400	2.2199E-07
0.405	1.8696E-07
0.420	1.1876E-07
0.436	8.5873E-08
0.460	5.6725E-08
0.500	2.7289E-08
0.546	1.0459E-08
0.580	1.2969E-08
0.620	1.5852E-08
0.660	1.4758E-08
0.700	8.9305E-09
1.060	1.0137E-08
1.530	4.8947E-08
1.970	4.5507E-07
2.325	2.7461E-06
2.500	7.2916E-06
