Material: glass / schott / N-LASF44
Optical constants. SCHOTT Zemax catalog 2017-01-20b (obtained from http://www.schott.com)See also SCHOTT glass data sheets
Comments: 
Specs: {"n_absolute": false, "wavelength_vacuum": false, "temperature": "20.0 °C", "thermal_dispersion": [{"type": "Schott formula", "coefficients": "3.32e-06 1.12e-08 -8.52e-12 5.88e-07 7.13e-10 0.209"}], "nd": 1.8042, "Vd": 46.5, "glass_code": 804465.444, "glass_status": "standard", "density": "4.44 g/cm3", "thermal_expansion": [{"temperature_range": "-30 70 °C", "coefficient": "6.21e-06 K-1"}, {"temperature_range": "20 300 °C", "coefficient": "7.39e-06 K-1"}], "dPgF": -0.0084, "climatic_resistance": 1.0, "stain_resistance": 1.0, "acid_resistance": 4.0, "alkali_resistance": 1.0, "phosphate_resistance": 1.0}
Dispersion formula 2, range 0.334 2.5 um, coefficients 0 1.78897105 0.00872506277 0.38675867 0.0308085023 1.30506243 92.7743824
wavelength (um)	k
0.334	2.5839E-06
0.350	1.1664E-06
0.365	5.6480E-07
0.370	4.4558E-07
0.380	2.8054E-07
0.390	1.7288E-07
0.400	1.2008E-07
0.405	1.0749E-07
0.420	6.8574E-08
0.436	4.9445E-08
0.460	3.4071E-08
0.500	1.7604E-08
0.546	8.7117E-09
0.580	9.2541E-09
0.620	9.8924E-09
0.660	1.0531E-08
0.700	8.9305E-09
1.060	1.6913E-08
1.530	1.2330E-07
1.970	8.7327E-07
2.325	5.5877E-06
2.500	1.5097E-05
