Material: glass / schott / N-LAF34
Optical constants. SCHOTT Zemax catalog 2017-01-20b (obtained from http://www.schott.com)See also SCHOTT glass data sheets
Comments: 
Specs: {"n_absolute": false, "wavelength_vacuum": false, "temperature": "20.0 °C", "thermal_dispersion": [{"type": "Schott formula", "coefficients": "3.89e-06 1.02e-08 -1.91e-11 5.88e-07 7.57e-10 0.181"}], "nd": 1.7725, "Vd": 49.62, "glass_code": 773496.424, "glass_status": "standard", "density": "4.24 g/cm3", "thermal_expansion": [{"temperature_range": "-30 70 °C", "coefficient": "5.8e-06 K-1"}, {"temperature_range": "20 300 °C", "coefficient": "7e-06 K-1"}], "dPgF": -0.0085, "climatic_resistance": 1.0, "stain_resistance": 1.0, "acid_resistance": 51.3, "alkali_resistance": 1.0, "phosphate_resistance": 1.0}
Dispersion formula 2, range 0.31 2.5 um, coefficients 0 1.75836958 0.00872810026 0.313537785 0.0293020832 1.18925231 85.1780644
wavelength (um)	k
0.310	3.5641E-06
0.320	2.1855E-06
0.334	1.1723E-06
0.350	5.6910E-07
0.365	2.8125E-07
0.370	2.2229E-07
0.380	1.3960E-07
0.390	9.1425E-08
0.400	6.5309E-08
0.405	5.5314E-08
0.420	3.9343E-08
0.436	3.0873E-08
0.460	2.0644E-08
0.500	1.1180E-08
0.546	6.9658E-09
0.580	9.2541E-09
0.620	9.8924E-09
0.660	8.4202E-09
0.700	8.9305E-09
1.060	6.7549E-09
1.530	1.3330E-07
1.970	8.8770E-07
2.325	5.9260E-06
2.500	1.5703E-05
