Material: glass / schott / N-LAF3
Optical constants. SCHOTT Zemax catalog 2017-01-20b (obtained from http://www.schott.com)See also SCHOTT glass data sheets
Comments: inquiry glass
Specs: {"n_absolute": false, "wavelength_vacuum": false, "temperature": "20.0 °C", "thermal_dispersion": [{"type": "Schott formula", "coefficients": "-2.35e-06 1.07e-08 -9.38e-12 5.72e-07 6.01e-10 0.22"}], "nd": 1.717, "Vd": 47.96, "glass_code": 717480.414, "glass_status": "special", "density": "4.14 g/cm3", "thermal_expansion": [{"temperature_range": "-30 70 °C", "coefficient": "7.6e-06 K-1"}, {"temperature_range": "20 300 °C", "coefficient": "8.7e-06 K-1"}], "dPgF": -0.0028, "climatic_resistance": 2.0, "stain_resistance": 3.0, "acid_resistance": 52.3, "alkali_resistance": 1.2, "phosphate_resistance": 3.3}
Dispersion formula 2, range 0.35 2.5 um, coefficients 0 1.73155854 0.00953833914 0.150874455 0.0407887211 1.06586596 98.0758545
wavelength (um)	k
0.350	3.1344E-06
0.365	1.0079E-06
0.370	7.2571E-07
0.380	3.9735E-07
0.390	2.3131E-07
0.400	1.4838E-07
0.405	1.2158E-07
0.420	8.2721E-08
0.436	6.3901E-08
0.460	4.7621E-08
0.500	2.4054E-08
0.546	1.2209E-08
0.580	1.2969E-08
0.620	1.3863E-08
0.660	1.4758E-08
0.700	1.5652E-08
1.060	2.3702E-08
1.530	9.8390E-08
1.970	8.0161E-07
2.325	4.0314E-06
2.500	9.3200E-06
