Material: glass / schott / N-LAK10
Optical constants. SCHOTT Zemax catalog 2017-01-20b (obtained from http://www.schott.com)See also SCHOTT glass data sheets
Comments: 
Specs: {"n_absolute": false, "wavelength_vacuum": false, "temperature": "20.0 °C", "thermal_dispersion": [{"type": "Schott formula", "coefficients": "4.1e-06 1.23e-08 -7.85e-12 5.08e-07 5.76e-10 0.205"}], "nd": 1.72003, "Vd": 50.62, "glass_code": 720506.369, "glass_status": "standard", "density": "3.689 g/cm3", "thermal_expansion": [{"temperature_range": "-30 70 °C", "coefficient": "5.68e-06 K-1"}, {"temperature_range": "20 300 °C", "coefficient": "6.83e-06 K-1"}], "dPgF": -0.0072, "climatic_resistance": 2.0, "stain_resistance": 2.0, "acid_resistance": 52.3, "alkali_resistance": 1.0, "phosphate_resistance": 3.0}
Dispersion formula 2, range 0.35 2.5 um, coefficients 0 1.72878017 0.00886014635 0.169257825 0.0363416509 1.19386956 82.9009069
wavelength (um)	k
0.350	2.2730E-06
0.365	7.5975E-07
0.370	5.4416E-07
0.380	3.1614E-07
0.390	2.0175E-07
0.400	1.3415E-07
0.405	1.2158E-07
0.420	8.2721E-08
0.436	5.2324E-08
0.460	3.4071E-08
0.500	1.9214E-08
0.546	1.0459E-08
0.580	1.2969E-08
0.620	1.1877E-08
0.660	1.2643E-08
0.700	1.1169E-08
1.060	1.6913E-08
1.530	1.1332E-07
1.970	8.0161E-07
2.325	6.0758E-06
2.500	1.6873E-05
