Material: glass / schott / N-PSK53
Optical constants. SCHOTT Zemax catalog 2017-01-20b (obtained from http://www.schott.com)See also SCHOTT glass data sheets
Comments: inquiry glass
Specs: {"n_absolute": false, "wavelength_vacuum": false, "temperature": "20.0 °C", "thermal_dispersion": [{"type": "Schott formula", "coefficients": "-9.29e-06 5.78e-09 8.87e-13 4.59e-07 5.86e-10 0.155"}], "nd": 1.62014, "Vd": 63.48, "glass_code": 620635.36, "glass_status": "special", "density": "3.6 g/cm3", "thermal_expansion": [{"temperature_range": "-30 70 °C", "coefficient": "9.4e-06 K-1"}, {"temperature_range": "20 300 °C", "coefficient": "1.09e-05 K-1"}], "dPgF": 0.0053, "climatic_resistance": 2.0, "stain_resistance": 1.0, "acid_resistance": 52.3, "alkali_resistance": 1.2, "phosphate_resistance": 4.3}
Dispersion formula 2, range 0.31 2.5 um, coefficients 0 1.3434087 0.00675074317 0.241417935 0.0219910513 0.952896897 103.551457
wavelength (um)	k
0.320	3.5718E-06
0.334	1.7111E-06
0.350	7.0731E-07
0.365	2.8867E-07
0.370	2.1945E-07
0.380	1.2744E-07
0.390	7.6813E-08
0.400	4.6682E-08
0.405	3.9267E-08
0.420	2.8374E-08
0.436	2.5209E-08
0.460	2.0644E-08
0.500	1.2784E-08
0.546	8.7117E-09
0.580	1.1111E-08
0.620	1.5852E-08
0.660	1.4758E-08
0.700	1.3409E-08
1.060	2.0305E-08
1.530	2.1914E-07
1.970	1.3993E-06
2.325	4.9832E-06
2.500	9.8507E-06
