Material: glass / schott / N-SSK2
Optical constants. SCHOTT Zemax catalog 2017-01-20b (obtained from http://www.schott.com)See also SCHOTT glass data sheets
Comments: 
Specs: {"n_absolute": false, "wavelength_vacuum": false, "temperature": "20.0 °C", "thermal_dispersion": [{"type": "Schott formula", "coefficients": "5.21e-06 1.34e-08 -1.01e-11 5.21e-07 5.87e-10 0.199"}], "nd": 1.62229, "Vd": 53.27, "glass_code": 622533.353, "glass_status": "standard", "density": "3.525 g/cm3", "thermal_expansion": [{"temperature_range": "-30 70 °C", "coefficient": "5.81e-06 K-1"}, {"temperature_range": "20 300 °C", "coefficient": "6.65e-06 K-1"}], "dPgF": -0.0016, "climatic_resistance": 1.0, "stain_resistance": 0.0, "acid_resistance": 1.2, "alkali_resistance": 1.0, "phosphate_resistance": 1.0}
Dispersion formula 2, range 0.35 2.5 um, coefficients 0 1.4306027 0.00823982975 0.153150554 0.0333736841 1.01390904 106.870822
wavelength (um)	k
0.350	1.5444E-06
0.365	4.6529E-07
0.370	3.3882E-07
0.380	1.8243E-07
0.390	1.0351E-07
0.400	5.9959E-08
0.405	4.8604E-08
0.420	3.3847E-08
0.436	2.8038E-08
0.460	2.2130E-08
0.500	1.2784E-08
0.546	8.7117E-09
0.580	9.2541E-09
0.620	1.3863E-08
0.660	1.2643E-08
0.700	8.9305E-09
1.060	2.7101E-08
1.530	9.3423E-08
1.970	4.5507E-07
2.325	2.4312E-06
2.500	5.5159E-06
