Material: glass / schott / P-LAF37
Optical constants. SCHOTT Zemax catalog 2017-01-20b (obtained from http://www.schott.com)See also SCHOTT glass data sheets
Comments: suitable for precision molding
Specs: {"n_absolute": false, "wavelength_vacuum": false, "nd": 1.7555, "Vd": 45.66, "glass_code": 755457.399, "glass_status": "standard", "density": "3.987 g/cm3", "thermal_expansion": [{"temperature_range": "-30 70 °C", "coefficient": "6.26e-06 K-1"}, {"temperature_range": "20 300 °C", "coefficient": "7.8e-06 K-1"}], "dPgF": -0.008}
Dispersion formula 2, range 0.32 2.5 um, coefficients 0 1.76003244 0.00938006396 0.248286745 0.0360537464 1.15935122 86.4324693
wavelength (um)	k
0.320	3.2787E-06
0.334	1.1469E-06
0.350	4.9720E-07
0.365	2.4482E-07
0.370	1.9835E-07
0.380	1.2744E-07
0.390	9.0090E-08
0.400	6.5309E-08
0.405	5.9358E-08
0.420	4.4862E-08
0.436	3.5137E-08
0.460	2.5106E-08
0.500	1.4389E-08
0.546	1.0459E-08
0.580	1.1111E-08
0.620	1.1877E-08
0.660	1.0531E-08
0.700	8.9305E-09
1.060	1.3523E-08
1.530	1.1831E-07
1.970	8.7327E-07
2.325	5.2793E-06
2.500	1.4583E-05
