Material: glass / schott / P-SF69
Optical constants. SCHOTT Zemax catalog 2017-01-20b (obtained from http://www.schott.com)See also SCHOTT glass data sheets
Comments: suitable for precision molding
Specs: {"n_absolute": false, "wavelength_vacuum": false, "temperature": "20.0 °C", "thermal_dispersion": [{"type": "Schott formula", "coefficients": "-2.55e-06 5.68e-09 -2.85e-11 9.5e-07 1.54e-09 0.275"}], "nd": 1.7225, "Vd": 29.23, "glass_code": 723292.293, "glass_status": "standard", "density": "2.934 g/cm3", "thermal_expansion": [{"temperature_range": "-30 70 °C", "coefficient": "8.99e-06 K-1"}, {"temperature_range": "20 300 °C", "coefficient": "1.113e-05 K-1"}], "dPgF": 0.0104}
Dispersion formula 2, range 0.365 2.5 um, coefficients 0 1.62594647 0.0121696677 0.235927609 0.0600710405 1.67434623 145.651908
wavelength (um)	k
0.365	5.4728E-06
0.370	2.9747E-06
0.380	1.1389E-06
0.390	5.1582E-07
0.400	2.8412E-07
0.405	2.2477E-07
0.420	1.2608E-07
0.436	8.5873E-08
0.460	5.3684E-08
0.500	2.7289E-08
0.546	1.3960E-08
0.580	1.1111E-08
0.620	1.3863E-08
0.660	1.4758E-08
0.700	1.3409E-08
1.060	6.7549E-09
1.530	8.3504E-08
1.970	7.3075E-07
2.325	2.8542E-06
2.500	4.3348E-06
