Material: inorganic / MoS2 / Ermolaev-o
Optical constants. G. A. Ermolaev, Yu. V. Stebunov, A. A. Vyshnevyy, D. E. Tatarkin, D. I. Yakubovsky, S. M. Novikov, D. G. Baranov, T. Shegai, A. Y. Nikitin, A. V. Arsenin, V. S. Volkov. Broadband optical properties of monolayer and bulk MoS2, NPJ 2D Mater. Appl., 4, 21 (2020) (Numerical data kindly provided by Georgy Ermolaev)
Comments: Ordinary ray (o).Optical constants of in-plane component of dielectric tensor of bulk MoS2 measured by spectroscopic ellipsometry.
Specs: {"n_absolute": true, "wavelength_vacuum": true}
wavelength (um)	n	k
0.290	2.97680	2.65075
0.298	3.02571	2.56961
0.306	3.04266	2.50069
0.314	3.03369	2.45217
0.322	3.00580	2.43015
0.330	2.96669	2.43941
0.338	2.92509	2.48343
0.346	2.89097	2.56457
0.354	2.87649	2.68300
0.362	2.89606	2.83543
0.370	2.96599	3.01252
0.378	3.10140	3.19448
0.386	3.30954	3.34911
0.394	3.57364	3.43406
0.402	3.84006	3.42305
0.410	4.04334	3.34499
0.418	4.16841	3.27461
0.426	4.26652	3.26520
0.434	4.40538	3.30952
0.442	4.62344	3.35675
0.450	4.91512	3.34531
0.458	5.23508	3.23169
0.466	5.52236	3.00956
0.474	5.72658	2.71176
0.482	5.83016	2.38936
0.490	5.84568	2.08535
0.498	5.79865	1.82246
0.506	5.71270	1.60893
0.514	5.61099	1.44369
0.522	5.50410	1.31619
0.530	5.39753	1.22067
0.538	5.29468	1.15214
0.546	5.19743	1.10698
0.554	5.10754	1.08315
0.562	5.02620	1.07965
0.570	4.95548	1.09704
0.578	4.89967	1.13723
0.586	4.86779	1.20255
0.594	4.87730	1.29218
0.602	4.95764	1.38950
0.610	5.13246	1.43384
0.618	5.34148	1.32628
0.626	5.41581	1.08744
0.634	5.31560	0.89674
0.642	5.15624	0.84425
0.650	5.03033	0.91858
0.658	5.00795	1.10111
0.666	5.21526	1.32286
0.674	5.69002	1.26410
0.682	5.91820	0.77432
0.690	5.75642	0.39180
0.698	5.53916	0.22797
0.706	5.36895	0.16625
0.714	5.24424	0.14415
0.722	5.15173	0.13731
0.730	5.08207	0.13340
0.738	5.02465	0.12948
0.746	4.97566	0.12566
0.754	4.93279	0.12196
0.762	4.89484	0.11843
0.770	4.86060	0.11503
0.778	4.82957	0.11179
0.786	4.80105	0.10869
0.794	4.77481	0.10572
0.802	4.75053	0.10288
0.810	4.72782	0.10015
0.818	4.70676	0.09754
0.826	4.68704	0.09504
0.834	4.66854	0.09260
0.842	4.65111	0.09017
0.850	4.63473	0.08778
0.858	4.61916	0.08541
0.866	4.60434	0.08305
0.874	4.59028	0.08073
0.882	4.57691	0.07844
0.890	4.56407	0.07617
0.898	4.55190	0.07395
0.906	4.54008	0.07173
0.914	4.52883	0.06956
0.922	4.51802	0.06742
0.930	4.50762	0.06532
0.938	4.49751	0.06323
0.946	4.48784	0.06120
0.954	4.47848	0.05919
0.962	4.46942	0.05722
0.970	4.46063	0.05528
0.978	4.45217	0.05339
0.986	4.44395	0.05153
0.994	4.43594	0.04970
1.002	4.42821	0.04792
1.010	4.42066	0.04617
1.018	4.41329	0.04445
1.026	4.40614	0.04277
1.034	4.39922	0.04114
1.042	4.39242	0.03954
1.050	4.38576	0.03797
1.058	4.37934	0.03646
1.066	4.37303	0.03498
1.074	4.36682	0.03353
1.082	4.36084	0.03214
1.090	4.35493	0.03077
1.098	4.34916	0.02945
1.106	4.34347	0.02816
1.114	4.33796	0.02692
1.122	4.33250	0.02571
1.130	4.32722	0.02455
1.138	4.32198	0.02342
1.146	4.31682	0.02233
1.154	4.31176	0.02128
1.162	4.30675	0.02027
1.170	4.30179	0.01930
1.178	4.29671	0.01842
1.186	4.29186	0.01792
1.194	4.28725	0.01745
1.202	4.28280	0.01699
1.210	4.27848	0.01656
1.218	4.27428	0.01615
1.226	4.27025	0.01576
1.234	4.26627	0.01538
1.242	4.26244	0.01503
1.250	4.25868	0.01469
1.258	4.25503	0.01436
1.266	4.25146	0.01405
1.274	4.24798	0.01375
1.282	4.24458	0.01347
1.290	4.24126	0.01319
1.298	4.23802	0.01293
1.306	4.23486	0.01268
1.314	4.23176	0.01244
1.322	4.22874	0.01221
1.330	4.22578	0.01199
1.338	4.22289	0.01178
1.346	4.22006	0.01157
1.354	4.21729	0.01137
1.362	4.21459	0.01119
1.370	4.21194	0.01100
1.378	4.20935	0.01083
1.386	4.20681	0.01066
1.394	4.20432	0.01050
1.402	4.20189	0.01034
1.410	4.19950	0.01019
1.418	4.19716	0.01005
1.426	4.19487	0.00991
1.434	4.19263	0.00978
1.442	4.19042	0.00965
1.450	4.18827	0.00952
1.458	4.18615	0.00940
1.466	4.18408	0.00928
1.474	4.18204	0.00917
1.482	4.18005	0.00906
1.490	4.17809	0.00896
1.498	4.17617	0.00885
1.506	4.17428	0.00876
1.514	4.17243	0.00866
1.522	4.17061	0.00857
1.530	4.16883	0.00848
1.538	4.16707	0.00839
1.546	4.16535	0.00831
1.554	4.16366	0.00823
1.562	4.16201	0.00815
1.570	4.16037	0.00807
1.578	4.15877	0.00800
1.586	4.15720	0.00793
1.594	4.15565	0.00786
1.602	4.15413	0.00779
1.610	4.15263	0.00773
1.618	4.15116	0.00767
1.626	4.14972	0.00760
1.634	4.14830	0.00755
1.642	4.14690	0.00749
1.650	4.14553	0.00743
1.658	4.14418	0.00738
1.666	4.14285	0.00732
1.674	4.14154	0.00727
1.682	4.14025	0.00722
1.690	4.13899	0.00718
1.698	4.13774	0.00713
1.706	4.13651	0.00708
1.714	4.13531	0.00704
1.722	4.13412	0.00700
1.730	4.13295	0.00695
1.738	4.13180	0.00691
1.746	4.13067	0.00687
1.754	4.12955	0.00683
1.762	4.12845	0.00680
1.770	4.12737	0.00676
1.778	4.12630	0.00672
1.786	4.12525	0.00669
1.794	4.12422	0.00666
1.802	4.12320	0.00662
1.810	4.12219	0.00659
1.818	4.12120	0.00656
1.826	4.12023	0.00653
1.834	4.11926	0.00650
1.842	4.11832	0.00647
1.850	4.11738	0.00645
1.858	4.11646	0.00642
1.866	4.11556	0.00639
1.874	4.11466	0.00637
1.882	4.11378	0.00634
1.890	4.11291	0.00632
1.898	4.11205	0.00629
1.906	4.11120	0.00627
1.914	4.11037	0.00625
1.922	4.10955	0.00622
1.930	4.10873	0.00620
1.938	4.10794	0.00618
1.946	4.10715	0.00616
1.954	4.10637	0.00614
1.962	4.10560	0.00612
1.970	4.10484	0.00610
1.978	4.10409	0.00609
1.986	4.10335	0.00607
1.994	4.10262	0.00605
2.002	4.10190	0.00603
2.010	4.10119	0.00602
2.018	4.10049	0.00600
2.026	4.09980	0.00598
2.034	4.09912	0.00597
2.042	4.09844	0.00595
2.050	4.09778	0.00594
2.058	4.09712	0.00593
2.066	4.09647	0.00591
2.074	4.09583	0.00590
2.082	4.09520	0.00589
2.090	4.09457	0.00587
2.098	4.09396	0.00586
2.106	4.09335	0.00585
2.114	4.09274	0.00584
2.122	4.09215	0.00583
2.130	4.09156	0.00581
2.138	4.09098	0.00580
2.146	4.09041	0.00579
2.154	4.08984	0.00578
2.162	4.08928	0.00577
2.170	4.08873	0.00576
2.178	4.08818	0.00575
2.186	4.08764	0.00574
2.194	4.08711	0.00573
2.202	4.08658	0.00573
2.210	4.08606	0.00572
2.218	4.08554	0.00571
2.226	4.08503	0.00570
2.234	4.08453	0.00569
2.242	4.08403	0.00569
2.250	4.08354	0.00568
2.258	4.08305	0.00567
2.266	4.08257	0.00566
2.274	4.08210	0.00566
2.282	4.08163	0.00565
2.290	4.08116	0.00564
2.298	4.08070	0.00564
2.306	4.08025	0.00563
2.314	4.07980	0.00563
2.322	4.07935	0.00562
2.330	4.07891	0.00562
2.338	4.07848	0.00561
2.346	4.07805	0.00560
2.354	4.07762	0.00560
2.362	4.07720	0.00559
2.370	4.07678	0.00559
2.378	4.07637	0.00559
2.386	4.07596	0.00558
2.394	4.07556	0.00558
2.402	4.07516	0.00557
2.410	4.07477	0.00557
2.418	4.07438	0.00557
2.426	4.07399	0.00556
2.434	4.07361	0.00556
2.442	4.07323	0.00556
2.450	4.07286	0.00555
2.458	4.07248	0.00555
2.466	4.07212	0.00555
2.474	4.07176	0.00554
2.482	4.07140	0.00554
2.490	4.07104	0.00554
2.498	4.07069	0.00554
2.506	4.07034	0.00553
2.514	4.06999	0.00553
2.522	4.06965	0.00553
2.530	4.06932	0.00553
2.538	4.06898	0.00552
2.546	4.06865	0.00552
2.554	4.06832	0.00552
2.562	4.06800	0.00552
2.570	4.06768	0.00552
2.578	4.06736	0.00552
2.586	4.06704	0.00552
2.594	4.06673	0.00551
2.602	4.06642	0.00551
2.610	4.06611	0.00551
2.618	4.06581	0.00551
2.626	4.06551	0.00551
2.634	4.06521	0.00551
2.642	4.06492	0.00551
2.650	4.06463	0.00551
2.658	4.06434	0.00551
2.666	4.06405	0.00551
2.674	4.06377	0.00551
2.682	4.06349	0.00551
2.690	4.06321	0.00551
2.698	4.06293	0.00551
2.706	4.06266	0.00551
2.714	4.06239	0.00551
2.722	4.06212	0.00551
2.730	4.06186	0.00551
2.738	4.06159	0.00551
2.746	4.06133	0.00551
2.754	4.06107	0.00551
2.762	4.06082	0.00551
2.770	4.06056	0.00551
2.778	4.06031	0.00551
2.786	4.06006	0.00551
2.794	4.05982	0.00551
2.802	4.05957	0.00551
2.810	4.05933	0.00551
2.818	4.05909	0.00551
2.826	4.05885	0.00552
2.834	4.05862	0.00552
2.842	4.05838	0.00552
2.850	4.05815	0.00552
2.858	4.05792	0.00552
2.866	4.05769	0.00552
2.874	4.05747	0.00552
2.882	4.05724	0.00552
2.890	4.05702	0.00553
2.898	4.05680	0.00553
2.906	4.05658	0.00553
2.914	4.05637	0.00553
2.922	4.05615	0.00553
2.930	4.05594	0.00553
2.938	4.05573	0.00554
2.946	4.05552	0.00554
2.954	4.05531	0.00554
2.962	4.05511	0.00554
2.970	4.05490	0.00554
2.978	4.05470	0.00555
2.986	4.05450	0.00555
2.994	4.05430	0.00555
3.002	4.05411	0.00555
3.010	4.05391	0.00555
3.018	4.05372	0.00556
3.026	4.05353	0.00556
3.034	4.05334	0.00556
3.042	4.05315	0.00556
3.050	4.05296	0.00557
3.058	4.05277	0.00557
3.066	4.05259	0.00557
3.074	4.05241	0.00557
3.082	4.05223	0.00558
3.090	4.05205	0.00558
3.098	4.05187	0.00558
3.106	4.05169	0.00558
3.114	4.05152	0.00559
3.122	4.05134	0.00559
3.130	4.05117	0.00559
3.138	4.05100	0.00560
3.146	4.05083	0.00560
3.154	4.05066	0.00560
3.162	4.05049	0.00560
3.170	4.05033	0.00561
3.178	4.05016	0.00561
3.186	4.05000	0.00561
3.194	4.04984	0.00562
3.202	4.04967	0.00562
3.210	4.04952	0.00562
3.218	4.04936	0.00563
3.226	4.04920	0.00563
3.234	4.04904	0.00563
3.242	4.04889	0.00564
3.250	4.04874	0.00564
3.258	4.04858	0.00564
3.266	4.04843	0.00565
3.274	4.04828	0.00565
3.282	4.04813	0.00565
3.290	4.04799	0.00566
3.298	4.04784	0.00566
