Material: inorganic / MoS2 / Ermolaev-e
Optical constants. G. A. Ermolaev, D. V. Grudinin, Y. V. Stebunov, K. V. Voronin, V. G. Kravets, J. Duan, A. B. Mazitov, G. I. Tselikov, A. Bylinkin, D. I. Yakubovsky, S. M. Novikov, D. G. Baranov, A. Y. Nikitin, I. A. Kruglov, T. Shegai, P. Alonso-Gonz√°lez, A. N. Grigorenko, A. V. Arsenin, K. S. Novoselov, V. S. Volkov. Giant optical anisotropy in transition metal dichalcogenides for next-generation photonics, Nat. Commun., 12, 854 (2021) (Numerical data kindly provided by Georgy Ermolaev)
Comments: Extraordinary ray (e).MoS2 bulk crystallographic c-axis optical constants.
Specs: {"n_absolute": true, "wavelength_vacuum": true}
wavelength (um)	n
0.360	3.28980
0.364	3.27241
0.368	3.25557
0.372	3.23928
0.376	3.22351
0.380	3.20823
0.384	3.19342
0.388	3.17907
0.392	3.16516
0.396	3.15167
0.400	3.13858
0.404	3.12587
0.408	3.11354
0.412	3.10157
0.416	3.08994
0.420	3.07864
0.424	3.06766
0.428	3.05698
0.432	3.04660
0.436	3.03651
0.440	3.02669
0.444	3.01713
0.448	3.00783
0.452	2.99877
0.456	2.98995
0.460	2.98136
0.464	2.97299
0.468	2.96484
0.472	2.95689
0.476	2.94914
0.480	2.94158
0.484	2.93421
0.488	2.92702
0.492	2.92001
0.496	2.91316
0.500	2.90648
0.504	2.89996
0.508	2.89359
0.512	2.88737
0.516	2.88129
0.520	2.87535
0.524	2.86955
0.528	2.86388
0.532	2.85834
0.536	2.85292
0.540	2.84762
0.544	2.84244
0.548	2.83737
0.552	2.83241
0.556	2.82755
0.560	2.82280
0.564	2.81815
0.568	2.81360
0.572	2.80915
0.576	2.80478
0.580	2.80051
0.584	2.79632
0.588	2.79222
0.592	2.78820
0.596	2.78427
0.600	2.78041
0.604	2.77662
0.608	2.77292
0.612	2.76928
0.616	2.76572
0.620	2.76222
0.624	2.75879
0.628	2.75543
0.632	2.75213
0.636	2.74889
0.640	2.74571
0.644	2.74259
0.648	2.73953
0.652	2.73652
0.656	2.73357
0.660	2.73068
0.664	2.72783
0.668	2.72504
0.672	2.72230
0.676	2.71960
0.680	2.71695
0.684	2.71435
0.688	2.71180
0.692	2.70928
0.696	2.70681
0.700	2.70439
0.704	2.70200
0.708	2.69966
0.712	2.69735
0.716	2.69508
0.720	2.69285
0.724	2.69066
0.728	2.68851
0.732	2.68638
0.736	2.68430
0.740	2.68224
0.744	2.68022
0.748	2.67824
0.752	2.67628
0.756	2.67436
0.760	2.67246
0.764	2.67060
0.768	2.66876
0.772	2.66695
0.776	2.66517
0.780	2.66342
0.784	2.66169
0.788	2.65999
0.792	2.65832
0.796	2.65667
0.800	2.65505
0.804	2.65345
0.808	2.65187
0.812	2.65032
0.816	2.64879
0.820	2.64728
0.824	2.64580
0.828	2.64433
0.832	2.64289
0.836	2.64147
0.840	2.64006
0.844	2.63868
0.848	2.63732
0.852	2.63597
0.856	2.63465
0.860	2.63334
0.864	2.63205
0.868	2.63078
0.872	2.62953
0.876	2.62829
0.880	2.62708
0.884	2.62587
0.888	2.62469
0.892	2.62352
0.896	2.62236
0.900	2.62122
0.904	2.62010
0.908	2.61899
0.912	2.61789
0.916	2.61681
0.920	2.61574
0.924	2.61469
0.928	2.61365
0.932	2.61263
0.936	2.61161
0.940	2.61061
0.944	2.60963
0.948	2.60865
0.952	2.60769
0.956	2.60674
0.960	2.60580
0.964	2.60487
0.968	2.60396
0.972	2.60305
0.976	2.60216
0.980	2.60128
0.984	2.60041
0.988	2.59955
0.992	2.59870
0.996	2.59785
1.000	2.59702
1.004	2.59620
1.008	2.59539
1.012	2.59463
1.016	2.59391
1.020	2.59319
1.024	2.59247
1.028	2.59175
1.032	2.59103
1.036	2.59031
1.040	2.58959
1.044	2.58887
1.048	2.58814
1.052	2.58742
1.056	2.58670
1.060	2.58598
1.064	2.58526
1.068	2.58454
1.072	2.58382
1.076	2.58310
1.080	2.58238
1.084	2.58166
1.088	2.58101
1.092	2.58038
1.096	2.57975
1.100	2.57912
1.104	2.57851
1.108	2.57790
1.112	2.57729
1.116	2.57670
1.120	2.57610
1.124	2.57552
1.128	2.57494
1.132	2.57437
1.136	2.57380
1.140	2.57324
1.144	2.57269
1.148	2.57214
1.152	2.57160
1.156	2.57106
1.160	2.57053
1.164	2.57001
1.168	2.56948
1.172	2.56897
1.176	2.56846
1.180	2.56795
1.184	2.56746
1.188	2.56696
1.192	2.56647
1.196	2.56599
1.200	2.56551
1.204	2.56503
1.208	2.56456
1.212	2.56409
1.216	2.56363
1.220	2.56318
1.224	2.56272
1.228	2.56228
1.232	2.56183
1.236	2.56139
1.240	2.56096
1.244	2.56053
1.248	2.56010
1.252	2.55968
1.256	2.55926
1.260	2.55885
1.264	2.55844
1.268	2.55803
1.272	2.55763
1.276	2.55723
1.280	2.55683
1.284	2.55644
1.288	2.55605
1.292	2.55567
1.296	2.55529
1.300	2.55491
1.304	2.55454
1.308	2.55416
1.312	2.55380
1.316	2.55343
1.320	2.55307
1.324	2.55272
1.328	2.55236
1.332	2.55201
1.336	2.55166
1.340	2.55132
1.344	2.55098
1.348	2.55064
1.352	2.55030
1.356	2.54997
1.360	2.54964
1.364	2.54932
1.368	2.54899
1.372	2.54867
1.376	2.54835
1.380	2.54804
1.384	2.54772
1.388	2.54741
1.392	2.54711
1.396	2.54680
1.400	2.54650
1.404	2.54620
1.408	2.54590
1.412	2.54561
1.416	2.54532
1.420	2.54503
1.424	2.54474
1.428	2.54446
1.432	2.54418
1.436	2.54390
1.440	2.54362
1.444	2.54334
1.448	2.54307
1.452	2.54280
1.456	2.54253
1.460	2.54226
1.464	2.54200
1.468	2.54174
1.472	2.54148
1.476	2.54122
1.480	2.54097
1.484	2.54071
1.488	2.54046
1.492	2.54021
1.496	2.53996
1.500	2.53972
1.504	2.53947
1.508	2.53923
1.512	2.53899
1.516	2.53876
1.520	2.53852
1.524	2.53829
1.528	2.53805
1.532	2.53782
1.536	2.53759
1.540	2.53737
1.544	2.53714
1.548	2.53692
1.552	2.53670
1.556	2.53648
1.560	2.53626
1.564	2.53604
1.568	2.53583
1.572	2.53561
1.576	2.53540
1.580	2.53519
1.584	2.53498
1.588	2.53478
1.592	2.53457
1.596	2.53437
1.600	2.53417
1.604	2.53397
1.608	2.53377
1.612	2.53357
1.616	2.53337
1.620	2.53318
1.624	2.53298
1.628	2.53279
1.632	2.53260
1.636	2.53241
1.640	2.53222
1.644	2.53204
1.648	2.53185
1.652	2.53167
1.656	2.53149
1.660	2.53131
1.664	2.53113
1.668	2.53095
1.672	2.53077
1.676	2.53059
1.680	2.53042
1.684	2.53025
1.688	2.53007
1.692	2.52990
1.696	2.52973
1.700	2.52957
