Material: inorganic / MoS2 / Islam-1L
Optical constants. K. M. Islam, R. Synowicki, T. Ismael, I. Oguntoye, N. Grinalds, M. D. Escarra. In-plane and out-of-plane optical properties of monolayer, few-layer, and thin-film MoS2 from 190 to 1700 nm and their application in photonic device design, Adv. Photonics Res., 2021 2000180 (Numerical data kindly provided by Kazi Islam)
Comments: Monolayer film (1L, step height 0.61 nm). In-plane (ordinary ray, o).
Specs: {"n_absolute": true, "wavelength_vacuum": true, "film_thickness": "1L", "substrate": "SiO2/Si"}
wavelength (um)	n	k
0.190	1.40227	1.35572
0.193	1.61962	1.39532
0.196	1.16952	1.07871
0.199	0.94890	1.58411
0.202	0.88690	2.09802
0.205	1.76374	2.51643
0.208	2.31508	1.76029
0.211	1.93931	1.31567
0.214	1.74142	1.35016
0.217	1.68538	1.36957
0.220	1.64959	1.36902
0.223	1.61545	1.37038
0.226	1.58321	1.37740
0.229	1.55260	1.39406
0.232	1.53111	1.42058
0.235	1.52586	1.44583
0.238	1.52154	1.44340
0.241	1.46599	1.42457
0.244	1.32453	1.46306
0.247	1.20397	1.70744
0.250	1.36713	1.99766
0.253	1.65020	2.05692
0.256	1.83538	1.95692
0.259	1.88974	1.82186
0.262	1.83842	1.75937
0.265	1.81706	1.81689
0.268	1.89740	1.85868
0.271	1.97413	1.81789
0.274	1.98948	1.76607
0.277	1.97912	1.74981
0.280	1.97542	1.75864
0.283	1.98191	1.78021
0.286	2.00015	1.81237
0.289	2.03758	1.85162
0.292	2.09903	1.88518
0.295	2.17830	1.90166
0.298	2.26696	1.89635
0.301	2.35857	1.86782
0.304	2.44838	1.81410
0.307	2.52833	1.73048
0.310	2.58257	1.61532
0.313	2.58986	1.48429
0.316	2.55034	1.36534
0.319	2.48087	1.27780
0.322	2.40344	1.22125
0.325	2.32882	1.18827
0.328	2.26775	1.16831
0.331	2.21896	1.13672
0.334	2.15639	1.07350
0.337	2.02319	0.98559
0.340	1.78229	0.95462
0.343	1.48454	1.09367
0.346	1.33155	1.42493
0.349	1.39419	1.72480
0.352	1.54208	1.89684
0.355	1.67055	1.95466
0.358	1.72580	1.97531
0.361	1.73101	2.02265
0.364	1.73335	2.12353
0.367	1.78828	2.25510
0.370	1.89515	2.36284
0.373	2.02400	2.42433
0.376	2.14191	2.43759
0.379	2.22137	2.42877
0.382	2.26785	2.42907
0.385	2.29882	2.45499
0.388	2.33888	2.51095
0.391	2.40906	2.57764
0.394	2.50493	2.63307
0.397	2.61440	2.66695
0.400	2.72261	2.67653
0.403	2.81441	2.67265
0.406	2.89135	2.67232
0.409	2.96293	2.68489
0.412	3.04227	2.71409
0.415	3.14715	2.75426
0.418	3.28459	2.78339
0.421	3.44535	2.78561
0.424	3.61723	2.75277
0.427	3.78654	2.68130
0.430	3.93648	2.57512
0.433	4.05917	2.44812
0.436	4.15481	2.31017
0.439	4.22511	2.16818
0.442	4.27267	2.02744
0.445	4.30120	1.89174
0.448	4.31399	1.76241
0.451	4.31304	1.64052
0.454	4.30016	1.52729
0.457	4.27737	1.42401
0.460	4.24732	1.33187
0.463	4.21347	1.25053
0.466	4.17782	1.17836
0.469	4.14139	1.11397
0.472	4.10485	1.05623
0.475	4.06855	1.00414
0.478	4.03256	0.95682
0.481	3.99669	0.91381
0.484	3.96098	0.87493
0.487	3.92557	0.84001
0.490	3.89065	0.80886
0.493	3.85644	0.78134
0.496	3.82325	0.75725
0.499	3.79157	0.73620
0.502	3.76140	0.71724
0.505	3.73190	0.70022
0.508	3.70334	0.68594
0.511	3.67688	0.67363
0.514	3.65169	0.66183
0.517	3.62633	0.65137
0.520	3.60172	0.64349
0.523	3.57906	0.63752
0.526	3.55850	0.63238
0.529	3.53955	0.62707
0.532	3.52096	0.62122
0.535	3.50192	0.61559
0.538	3.48245	0.61086
0.541	3.46280	0.60742
0.544	3.44348	0.60526
0.547	3.42450	0.60382
0.550	3.40503	0.60299
0.553	3.38478	0.60369
0.556	3.36457	0.60639
0.559	3.34469	0.61016
0.562	3.32368	0.61451
0.565	3.30027	0.62116
0.568	3.27495	0.63209
0.571	3.24901	0.64853
0.574	3.22404	0.67123
0.577	3.20187	0.69968
0.580	3.18257	0.73254
0.583	3.16405	0.77087
0.586	3.14730	0.81934
0.589	3.13738	0.88170
0.592	3.14230	0.95935
0.595	3.17436	1.05023
0.598	3.24715	1.13704
0.601	3.35413	1.19582
0.604	3.47605	1.21457
0.607	3.59604	1.19510
0.610	3.70170	1.14096
0.613	3.78040	1.06195
0.616	3.82831	0.97143
0.619	3.84535	0.88029
0.622	3.83408	0.79970
0.625	3.80217	0.74050
0.628	3.76513	0.70653
0.631	3.73201	0.68915
0.634	3.70032	0.68048
0.637	3.66072	0.68721
0.640	3.62121	0.72781
0.643	3.61337	0.81263
0.646	3.67430	0.90890
0.649	3.79769	0.96919
0.652	3.95033	0.96535
0.655	4.09761	0.90025
0.658	4.22092	0.78282
0.661	4.29859	0.62192
0.664	4.31275	0.44592
0.667	4.26652	0.28661
0.670	4.18183	0.17125
0.673	4.09101	0.09900
0.676	4.00821	0.05648
0.679	3.93749	0.03094
0.682	3.87629	0.01546
0.685	3.82369	0.00709
0.688	3.77894	0.00286
0.691	3.74033	0.00079
0.694	3.70670	0.00008
0.697	3.67724	0
0.700	3.65103	0
0.703	3.62730	0
0.706	3.60558	0
0.709	3.58554	0
0.712	3.56694	0
0.715	3.54958	0
0.718	3.53331	0
0.721	3.51800	0
0.724	3.50355	0
0.727	3.48986	0
0.730	3.47687	0
0.733	3.46450	0
0.736	3.45271	0
0.739	3.44144	0
0.742	3.43065	0
0.745	3.42031	0
0.748	3.41039	0
0.751	3.40084	0
0.754	3.39165	0
0.757	3.38280	0
0.760	3.37425	0
0.763	3.36600	0
0.766	3.35803	0
0.769	3.35031	0
0.772	3.34284	0
0.775	3.33559	0
0.778	3.32857	0
0.781	3.32175	0
0.784	3.31513	0
0.787	3.30870	0
0.790	3.30245	0
0.793	3.29636	0
0.796	3.29044	0
0.799	3.28467	0
0.802	3.27905	0
0.805	3.27357	0
0.808	3.26822	0
0.811	3.26301	0
0.814	3.25792	0
0.817	3.25295	0
0.820	3.24810	0
0.823	3.24335	0
0.826	3.23872	0
0.829	3.23418	0
0.832	3.22975	0
0.835	3.22541	0
0.838	3.22116	0
0.841	3.21700	0
0.844	3.21293	0
0.847	3.20894	0
0.850	3.20503	0
0.853	3.20120	0
0.856	3.19744	0
0.859	3.19376	0
0.862	3.19015	0
0.865	3.18661	0
0.868	3.18313	0
0.871	3.17971	0
0.874	3.17637	0
0.877	3.17308	0
0.880	3.16985	0
0.883	3.16667	0
0.886	3.16356	0
0.889	3.16050	0
0.892	3.15749	0
0.895	3.15453	0
0.898	3.15162	0
0.901	3.14876	0
0.904	3.14595	0
0.907	3.14318	0
0.910	3.14046	0
0.913	3.13779	0
0.916	3.13516	0
0.919	3.13256	0
0.922	3.13001	0
0.925	3.12750	0
0.928	3.12503	0
0.931	3.12260	0
0.934	3.12020	0
0.937	3.11784	0
0.940	3.11551	0
0.943	3.11322	0
0.946	3.11097	0
0.949	3.10874	0
0.952	3.10655	0
0.955	3.10439	0
0.958	3.10226	0
0.961	3.10016	0
0.964	3.09809	0
0.967	3.09605	0
0.970	3.09404	0
0.973	3.09206	0
0.976	3.09010	0
0.979	3.08817	0
0.982	3.08627	0
0.985	3.08439	0
0.988	3.08254	0
0.991	3.08071	0
0.994	3.07891	0
0.997	3.07713	0
1.000	3.07537	0
1.008	3.07107	0
1.015	3.06691	0
1.023	3.06289	0
1.030	3.05898	0
1.038	3.05519	0
1.045	3.05151	0
1.053	3.04795	0
1.060	3.04448	0
1.068	3.04112	0
1.075	3.03785	0
1.083	3.03467	0
1.090	3.03158	0
1.098	3.02857	0
1.105	3.02564	0
1.113	3.02279	0
1.120	3.02002	0
1.128	3.01732	0
1.135	3.01468	0
1.143	3.01212	0
1.150	3.00961	0
1.158	3.00717	0
1.165	3.00480	0
1.173	3.00247	0
1.180	3.00021	0
1.188	2.99799	0
1.195	2.99583	0
1.203	2.99373	0
1.210	2.99166	0
1.218	2.98965	0
1.225	2.98768	0
1.233	2.98576	0
1.240	2.98388	0
1.248	2.98204	0
1.255	2.98024	0
1.263	2.97848	0
1.270	2.97676	0
1.278	2.97507	0
1.285	2.97342	0
1.293	2.97180	0
1.300	2.97022	0
1.308	2.96867	0
1.315	2.96716	0
1.323	2.96567	0
1.330	2.96421	0
1.338	2.96278	0
1.345	2.96138	0
1.353	2.96001	0
1.360	2.95866	0
1.368	2.95734	0
1.375	2.95605	0
1.383	2.95478	0
1.390	2.95353	0
1.398	2.95231	0
1.405	2.95111	0
1.413	2.94993	0
1.420	2.94878	0
1.428	2.94764	0
1.435	2.94653	0
1.443	2.94543	0
1.450	2.94436	0
1.458	2.94330	0
1.465	2.94227	0
1.473	2.94125	0
1.480	2.94025	0
1.488	2.93926	0
1.495	2.93829	0
1.503	2.93734	0
1.510	2.93641	0
1.518	2.93549	0
1.525	2.93459	0
1.533	2.93370	0
1.540	2.93282	0
1.548	2.93196	0
1.555	2.93112	0
1.563	2.93029	0
1.570	2.92947	0
1.578	2.92866	0
1.585	2.92787	0
1.593	2.92709	0
1.600	2.92632	0
1.608	2.92557	0
1.615	2.92482	0
1.623	2.92409	0
1.630	2.92337	0
1.638	2.92266	0
1.645	2.92196	0
1.653	2.92127	0
1.660	2.92059	0
1.668	2.91992	0
1.675	2.91926	0
1.683	2.91861	0
1.690	2.91798	0
1.698	2.91735	0
