Material: inorganic / MoS2 / Islam-fewL
Optical constants. K. M. Islam, R. Synowicki, T. Ismael, I. Oguntoye, N. Grinalds, M. D. Escarra. In-plane and out-of-plane optical properties of monolayer, few-layer, and thin-film MoS2 from 190 to 1700 nm and their application in photonic device design, Adv. Photonics Res., 2021 2000180 (Numerical data kindly provided by Kazi Islam)
Comments: Few-layer film (step height 2.15 nm). In-plane (ordinary ray, o).
Specs: {"n_absolute": true, "wavelength_vacuum": true, "film_thickness": "2.15 nm", "substrate": "SiO2/Si"}
wavelength (um)	n	k
0.190	1.65451	0.56183
0.193	1.53080	0.70847
0.196	1.35473	0.49555
0.199	0.81556	0.70398
0.202	0.99350	1.19842
0.205	1.19916	1.13624
0.208	1.09945	1.11701
0.211	1.12662	1.37674
0.214	1.42921	1.41733
0.217	1.57713	1.24281
0.220	1.57524	1.08668
0.223	1.51928	1.00810
0.226	1.47827	0.97333
0.229	1.44874	0.94578
0.232	1.41648	0.92021
0.235	1.39282	0.90708
0.238	1.39396	0.85738
0.241	1.33507	0.73403
0.244	1.11696	0.60282
0.247	0.67464	0.74018
0.250	0.63168	1.25089
0.253	0.88331	1.47215
0.256	1.06986	1.47335
0.259	1.13461	1.40907
0.262	1.07951	1.36572
0.265	0.93653	1.43581
0.268	0.83881	1.71266
0.271	1.00546	2.08016
0.274	1.39963	2.24952
0.277	1.77441	2.15060
0.280	1.96677	1.93149
0.283	2.01760	1.74764
0.286	2.02805	1.63227
0.289	2.03475	1.54860
0.292	2.03821	1.47951
0.295	2.03794	1.42187
0.298	2.03672	1.37359
0.301	2.03668	1.33065
0.304	2.03722	1.28940
0.307	2.03641	1.24806
0.310	2.03298	1.20637
0.313	2.02601	1.16416
0.316	2.01472	1.12180
0.319	1.99898	1.07967
0.322	1.97924	1.03755
0.325	1.95517	0.99380
0.328	1.92499	0.94692
0.331	1.88612	0.89522
0.334	1.83313	0.83627
0.337	1.75489	0.76882
0.340	1.62766	0.70280
0.343	1.43808	0.68039
0.346	1.21177	0.76113
0.349	1.05621	0.97123
0.352	1.04044	1.19374
0.355	1.10205	1.34829
0.358	1.17701	1.42839
0.361	1.22662	1.45998
0.364	1.24062	1.46811
0.367	1.21162	1.47047
0.370	1.12902	1.49460
0.373	1.01092	1.58798
0.376	0.91394	1.77007
0.379	0.89360	2.01360
0.382	0.97103	2.25834
0.385	1.11513	2.45859
0.388	1.29342	2.60605
0.391	1.48404	2.70328
0.394	1.67073	2.75896
0.397	1.84765	2.78458
0.400	2.01323	2.78650
0.403	2.16578	2.76891
0.406	2.30270	2.73605
0.409	2.42312	2.69461
0.412	2.52954	2.64960
0.415	2.62502	2.60415
0.418	2.71318	2.56013
0.421	2.79832	2.51702
0.424	2.88208	2.47195
0.427	2.96418	2.42308
0.430	3.04386	2.36929
0.433	3.12001	2.30993
0.436	3.19120	2.24508
0.439	3.25657	2.17556
0.442	3.31573	2.10196
0.445	3.36827	2.02476
0.448	3.41364	1.94436
0.451	3.45090	1.86143
0.454	3.47939	1.77752
0.457	3.49933	1.69416
0.460	3.51118	1.61257
0.463	3.51559	1.53378
0.466	3.51338	1.45870
0.469	3.50566	1.38792
0.472	3.49334	1.32152
0.475	3.47705	1.25959
0.478	3.45737	1.20225
0.481	3.43490	1.14968
0.484	3.41034	1.10203
0.487	3.38465	1.05931
0.490	3.35866	1.02097
0.493	3.33279	0.98645
0.496	3.30730	0.95524
0.499	3.28235	0.92690
0.502	3.25802	0.90102
0.505	3.23431	0.87724
0.508	3.21111	0.85529
0.511	3.18836	0.83500
0.514	3.16603	0.81624
0.517	3.14408	0.79885
0.520	3.12248	0.78271
0.523	3.10115	0.76770
0.526	3.08004	0.75370
0.529	3.05902	0.74061
0.532	3.03797	0.72844
0.535	3.01681	0.71715
0.538	2.99545	0.70676
0.541	2.97382	0.69725
0.544	2.95179	0.68862
0.547	2.92922	0.68090
0.550	2.90590	0.67409
0.553	2.88141	0.66840
0.556	2.85551	0.66439
0.559	2.82828	0.66263
0.562	2.79990	0.66367
0.565	2.77072	0.66800
0.568	2.74119	0.67608
0.571	2.71192	0.68832
0.574	2.68367	0.70506
0.577	2.65748	0.72651
0.580	2.63473	0.75228
0.583	2.61622	0.78139
0.586	2.60240	0.81292
0.589	2.59345	0.84596
0.592	2.58939	0.87969
0.595	2.59011	0.91333
0.598	2.59537	0.94620
0.601	2.60483	0.97771
0.604	2.61810	1.00735
0.607	2.63472	1.03474
0.610	2.65421	1.05963
0.613	2.67616	1.08182
0.616	2.70017	1.10118
0.619	2.72583	1.11762
0.622	2.75279	1.13107
0.625	2.78066	1.14152
0.628	2.80910	1.14895
0.631	2.83775	1.15338
0.634	2.86623	1.15486
0.637	2.89412	1.15348
0.640	2.92093	1.14951
0.643	2.94642	1.14338
0.646	2.97047	1.13546
0.649	2.99304	1.12607
0.652	3.01413	1.11546
0.655	3.03376	1.10389
0.658	3.05195	1.09154
0.661	3.06877	1.07861
0.664	3.08427	1.06527
0.667	3.09855	1.05167
0.670	3.11170	1.03793
0.673	3.12386	1.02416
0.676	3.13515	1.01039
0.679	3.14566	0.99662
0.682	3.15543	0.98286
0.685	3.16452	0.96911
0.688	3.17296	0.95538
0.691	3.18078	0.94169
0.694	3.18801	0.92805
0.697	3.19467	0.91446
0.700	3.20078	0.90095
0.703	3.20637	0.88752
0.706	3.21145	0.87419
0.709	3.21605	0.86096
0.712	3.22016	0.84784
0.715	3.22382	0.83486
0.718	3.22702	0.82202
0.721	3.22979	0.80934
0.724	3.23215	0.79684
0.727	3.23411	0.78452
0.730	3.23569	0.77241
0.733	3.23691	0.76051
0.736	3.23779	0.74883
0.739	3.23834	0.73738
0.742	3.23858	0.72618
0.745	3.23854	0.71522
0.748	3.23823	0.70453
0.751	3.23767	0.69410
0.754	3.23690	0.68395
0.757	3.23593	0.67407
0.760	3.23481	0.66446
0.763	3.23353	0.65509
0.766	3.23212	0.64597
0.769	3.23060	0.63709
0.772	3.22896	0.62842
0.775	3.22722	0.61998
0.778	3.22538	0.61174
0.781	3.22345	0.60370
0.784	3.22143	0.59585
0.787	3.21933	0.58820
0.790	3.21715	0.58072
0.793	3.21490	0.57342
0.796	3.21256	0.56629
0.799	3.21014	0.55933
0.802	3.20764	0.55254
0.805	3.20505	0.54590
0.808	3.20235	0.53943
0.811	3.19953	0.53314
0.814	3.19661	0.52707
0.817	3.19358	0.52121
0.820	3.19045	0.51558
0.823	3.18724	0.51020
0.826	3.18396	0.50508
0.829	3.18062	0.50023
0.832	3.17724	0.49566
0.835	3.17384	0.49138
0.838	3.17043	0.48741
0.841	3.16703	0.48375
0.844	3.16368	0.48040
0.847	3.16040	0.47738
0.850	3.15720	0.47470
0.853	3.15413	0.47235
0.856	3.15123	0.47034
0.859	3.14852	0.46867
0.862	3.14609	0.46734
0.865	3.14399	0.46632
0.868	3.14227	0.46554
0.871	3.14095	0.46493
0.874	3.14004	0.46446
0.877	3.13955	0.46406
0.880	3.13948	0.46368
0.883	3.13982	0.46329
0.886	3.14057	0.46282
0.889	3.14170	0.46225
0.892	3.14320	0.46154
0.895	3.14505	0.46064
0.898	3.14724	0.45952
0.901	3.14973	0.45815
0.904	3.15250	0.45650
0.907	3.15551	0.45454
0.910	3.15875	0.45224
0.913	3.16217	0.44958
0.916	3.16573	0.44653
0.919	3.16940	0.44309
0.922	3.17313	0.43921
0.925	3.17686	0.43490
0.928	3.18053	0.43013
0.931	3.18405	0.42495
0.934	3.18740	0.41939
0.937	3.19052	0.41348
0.940	3.19341	0.40728
0.943	3.19604	0.40080
0.946	3.19840	0.39409
0.949	3.20048	0.38717
0.952	3.20226	0.38006
0.955	3.20376	0.37281
0.958	3.20495	0.36543
0.961	3.20584	0.35794
0.964	3.20643	0.35037
0.967	3.20672	0.34274
0.970	3.20672	0.33507
0.973	3.20641	0.32739
0.976	3.20582	0.31971
0.979	3.20493	0.31204
0.982	3.20377	0.30441
0.985	3.20233	0.29684
0.988	3.20063	0.28934
0.991	3.19866	0.28192
0.994	3.19644	0.27459
0.997	3.19399	0.26739
1.000	3.19130	0.26031
1.008	3.18369	0.24325
1.015	3.17497	0.22714
1.023	3.16531	0.21202
1.030	3.15481	0.19793
1.038	3.14361	0.18489
1.045	3.13179	0.17294
1.053	3.11948	0.16212
1.060	3.10676	0.15245
1.068	3.09376	0.14397
1.075	3.08059	0.13670
1.083	3.06737	0.13066
1.090	3.05426	0.12589
1.098	3.04147	0.12237
1.105	3.02921	0.11998
1.113	3.01761	0.11857
1.120	3.00673	0.11797
1.128	2.99664	0.11803
1.135	2.98734	0.11862
1.143	2.97884	0.11961
1.150	2.97114	0.12088
1.158	2.96421	0.12232
1.165	2.95801	0.12381
1.173	2.95249	0.12527
1.180	2.94761	0.12659
1.188	2.94328	0.12770
1.195	2.93943	0.12851
1.203	2.93593	0.12897
1.210	2.93263	0.12907
1.218	2.92944	0.12886
1.225	2.92629	0.12839
1.233	2.92314	0.12772
1.240	2.91996	0.12688
1.248	2.91672	0.12592
1.255	2.91341	0.12486
1.263	2.91002	0.12376
1.270	2.90654	0.12264
1.278	2.90298	0.12153
1.285	2.89934	0.12046
1.293	2.89562	0.11946
1.300	2.89184	0.11855
1.308	2.88801	0.11775
1.315	2.88414	0.11708
1.323	2.88027	0.11657
1.330	2.87641	0.11624
1.338	2.87262	0.11608
1.345	2.86894	0.11607
1.353	2.86539	0.11620
1.360	2.86198	0.11642
1.368	2.85871	0.11673
1.375	2.85559	0.11709
1.383	2.85263	0.11750
1.390	2.84982	0.11791
1.398	2.84714	0.11833
1.405	2.84461	0.11873
1.413	2.84221	0.11910
1.420	2.83994	0.11941
1.428	2.83777	0.11967
1.435	2.83570	0.11985
1.443	2.83372	0.11994
1.450	2.83182	0.11994
1.458	2.82997	0.11982
1.465	2.82817	0.11959
1.473	2.82639	0.11922
1.480	2.82461	0.11873
1.488	2.82281	0.11809
1.495	2.82095	0.11730
1.503	2.81900	0.11637
1.510	2.81693	0.11533
1.518	2.81471	0.11421
1.525	2.81234	0.11302
1.533	2.80981	0.11179
1.540	2.80711	0.11055
1.548	2.80424	0.10932
1.555	2.80121	0.10810
1.563	2.79801	0.10693
1.570	2.79465	0.10582
1.578	2.79113	0.10479
1.585	2.78746	0.10385
1.593	2.78363	0.10301
1.600	2.77967	0.10229
1.608	2.77556	0.10171
1.615	2.77134	0.10126
1.623	2.76700	0.10098
1.630	2.76254	0.10087
1.638	2.75800	0.10093
1.645	2.75336	0.10118
1.653	2.74865	0.10163
1.660	2.74388	0.10229
1.668	2.73906	0.10316
1.675	2.73420	0.10425
1.683	2.72932	0.10557
1.690	2.72444	0.10712
1.698	2.71957	0.10892
