Material: inorganic / MoS2 / Islam-o
Optical constants. K. M. Islam, R. Synowicki, T. Ismael, I. Oguntoye, N. Grinalds, M. D. Escarra. In-plane and out-of-plane optical properties of monolayer, few-layer, and thin-film MoS2 from 190 to 1700 nm and their application in photonic device design, Adv. Photonics Res., 2021 2000180 (Numerical data kindly provided by Kazi Islam)
Comments: Thin film (step height 33.5 nm). In-plane (ordinary ray, o).
Specs: {"n_absolute": true, "wavelength_vacuum": true, "film_thickness": "33.5 nm", "substrate": "SiO2/Si"}
wavelength (um)	n	k
0.190	1.83397	1.75515
0.193	1.82910	1.70286
0.196	1.83124	1.66520
0.199	1.83765	1.64031
0.202	1.84693	1.62432
0.205	1.85751	1.61312
0.208	1.87069	1.60207
0.211	1.88301	1.59302
0.214	1.89351	1.58460
0.217	1.90369	1.57910
0.220	1.91176	1.57474
0.223	1.91878	1.57693
0.226	1.92652	1.58109
0.229	1.93512	1.59189
0.232	1.95077	1.60685
0.235	1.97233	1.62013
0.238	1.99782	1.63144
0.241	2.02550	1.63800
0.244	2.05157	1.64244
0.247	2.07739	1.64627
0.250	2.10537	1.64957
0.253	2.13182	1.64956
0.256	2.15794	1.64892
0.259	2.18181	1.64868
0.262	2.20748	1.64981
0.265	2.23456	1.64924
0.268	2.26239	1.64774
0.271	2.29008	1.64345
0.274	2.31842	1.63974
0.277	2.34769	1.63066
0.280	2.37370	1.62040
0.283	2.39890	1.60772
0.286	2.41888	1.59311
0.289	2.43504	1.58472
0.292	2.45705	1.57826
0.295	2.47950	1.57044
0.298	2.50749	1.56322
0.301	2.54204	1.54863
0.304	2.57969	1.52064
0.307	2.60781	1.47042
0.310	2.60548	1.41407
0.313	2.58190	1.37351
0.316	2.55178	1.35311
0.319	2.52588	1.34836
0.322	2.50832	1.35066
0.325	2.49492	1.35489
0.328	2.48495	1.36242
0.331	2.47976	1.37069
0.334	2.47734	1.37702
0.337	2.47437	1.38073
0.340	2.46810	1.38388
0.343	2.45772	1.38947
0.346	2.44440	1.40052
0.349	2.43081	1.41904
0.352	2.42107	1.44493
0.355	2.41731	1.47505
0.358	2.41923	1.50729
0.361	2.42664	1.54051
0.364	2.43925	1.57346
0.367	2.45626	1.60511
0.370	2.47665	1.63495
0.373	2.49929	1.66315
0.376	2.52395	1.69065
0.379	2.55144	1.71755
0.382	2.58193	1.74306
0.385	2.61505	1.76657
0.388	2.65001	1.78770
0.391	2.68574	1.80702
0.394	2.72265	1.82592
0.397	2.76236	1.84431
0.400	2.80531	1.86065
0.403	2.85086	1.87391
0.406	2.89815	1.88356
0.409	2.94614	1.88947
0.412	2.99397	1.89217
0.415	3.04133	1.89227
0.418	3.08804	1.89035
0.421	3.13419	1.88696
0.424	3.17996	1.88275
0.427	3.22615	1.87850
0.430	3.27449	1.87426
0.433	3.32632	1.86822
0.436	3.38109	1.85848
0.439	3.43746	1.84446
0.442	3.49522	1.82664
0.445	3.55569	1.80476
0.448	3.61996	1.77505
0.451	3.68441	1.73316
0.454	3.74153	1.67816
0.457	3.78579	1.61671
0.460	3.81822	1.55542
0.463	3.84314	1.49783
0.466	3.86397	1.44325
0.469	3.88200	1.39077
0.472	3.89817	1.33953
0.475	3.91269	1.28831
0.478	3.92498	1.23614
0.481	3.93365	1.18277
0.484	3.93778	1.12929
0.487	3.93735	1.07679
0.490	3.93275	1.02612
0.493	3.92447	0.97775
0.496	3.91297	0.93209
0.499	3.89878	0.88947
0.502	3.88254	0.85000
0.505	3.86469	0.81366
0.508	3.84564	0.78042
0.511	3.82584	0.75023
0.514	3.80566	0.72289
0.517	3.78537	0.69821
0.520	3.76519	0.67601
0.523	3.74538	0.65607
0.526	3.72606	0.63812
0.529	3.70730	0.62195
0.532	3.68913	0.60733
0.535	3.67152	0.59415
0.538	3.65451	0.58230
0.541	3.63809	0.57166
0.544	3.62228	0.56214
0.547	3.60709	0.55365
0.550	3.59249	0.54609
0.553	3.57848	0.53939
0.556	3.56501	0.53348
0.559	3.55201	0.52836
0.562	3.53950	0.52402
0.565	3.52747	0.52048
0.568	3.51593	0.51772
0.571	3.50489	0.51579
0.574	3.49440	0.51469
0.577	3.48450	0.51446
0.580	3.47527	0.51512
0.583	3.46679	0.51669
0.586	3.45917	0.51920
0.589	3.45257	0.52269
0.592	3.44719	0.52717
0.595	3.44333	0.53262
0.598	3.44138	0.53881
0.601	3.44154	0.54540
0.604	3.44396	0.55207
0.607	3.44882	0.55851
0.610	3.45646	0.56434
0.613	3.46720	0.56858
0.616	3.48068	0.57007
0.619	3.49614	0.56784
0.622	3.51244	0.56106
0.625	3.52776	0.54918
0.628	3.53986	0.53316
0.631	3.54783	0.51479
0.634	3.55150	0.49562
0.637	3.55108	0.47707
0.640	3.54723	0.46040
0.643	3.54112	0.44647
0.646	3.53379	0.43538
0.649	3.52600	0.42722
0.652	3.51849	0.42205
0.655	3.51214	0.41990
0.658	3.50822	0.42074
0.661	3.50841	0.42339
0.664	3.51325	0.42586
0.667	3.52248	0.42629
0.670	3.53525	0.42304
0.673	3.55021	0.41467
0.676	3.56509	0.40000
0.679	3.57680	0.37972
0.682	3.58381	0.35589
0.685	3.58558	0.33038
0.688	3.58213	0.30486
0.691	3.57385	0.28091
0.694	3.56167	0.25999
0.697	3.54739	0.24295
0.700	3.53244	0.22935
0.703	3.51758	0.21865
0.706	3.50328	0.21033
0.709	3.48984	0.20391
0.712	3.47739	0.19892
0.715	3.46595	0.19495
0.718	3.45535	0.19171
0.721	3.44551	0.18912
0.724	3.43639	0.18706
0.727	3.42798	0.18546
0.730	3.42025	0.18421
0.733	3.41321	0.18324
0.736	3.40680	0.18246
0.739	3.40102	0.18179
0.742	3.39582	0.18116
0.745	3.39117	0.18050
0.748	3.38703	0.17976
0.751	3.38335	0.17887
0.754	3.38007	0.17777
0.757	3.37713	0.17641
0.760	3.37443	0.17475
0.763	3.37185	0.17281
0.766	3.36935	0.17062
0.769	3.36687	0.16822
0.772	3.36438	0.16564
0.775	3.36185	0.16291
0.778	3.35927	0.16006
0.781	3.35663	0.15712
0.784	3.35391	0.15413
0.787	3.35112	0.15109
0.790	3.34826	0.14802
0.793	3.34531	0.14495
0.796	3.34229	0.14189
0.799	3.33920	0.13885
0.802	3.33603	0.13585
0.805	3.33279	0.13290
0.808	3.32949	0.13001
0.811	3.32614	0.12721
0.814	3.32276	0.12448
0.817	3.31934	0.12183
0.820	3.31589	0.11927
0.823	3.31243	0.11680
0.826	3.30894	0.11442
0.829	3.30545	0.11213
0.832	3.30196	0.10994
0.835	3.29848	0.10785
0.838	3.29501	0.10585
0.841	3.29156	0.10395
0.844	3.28814	0.10214
0.847	3.28476	0.10042
0.850	3.28142	0.09878
0.853	3.27812	0.09723
0.856	3.27487	0.09574
0.859	3.27167	0.09433
0.862	3.26851	0.09298
0.865	3.26541	0.09170
0.868	3.26237	0.09048
0.871	3.25938	0.08931
0.874	3.25645	0.08819
0.877	3.25359	0.08712
0.880	3.25078	0.08608
0.883	3.24803	0.08507
0.886	3.24533	0.08409
0.889	3.24268	0.08313
0.892	3.24009	0.08219
0.895	3.23753	0.08126
0.898	3.23501	0.08034
0.901	3.23252	0.07943
0.904	3.23004	0.07855
0.907	3.22758	0.07769
0.910	3.22514	0.07686
0.913	3.22272	0.07606
0.916	3.22032	0.07531
0.919	3.21794	0.07460
0.922	3.21559	0.07394
0.925	3.21328	0.07334
0.928	3.21100	0.07280
0.931	3.20879	0.07232
0.934	3.20665	0.07189
0.937	3.20459	0.07151
0.940	3.20263	0.07115
0.943	3.20076	0.07080
0.946	3.19898	0.07045
0.949	3.19729	0.07009
0.952	3.19569	0.06969
0.955	3.19416	0.06926
0.958	3.19270	0.06878
0.961	3.19130	0.06823
0.964	3.18994	0.06762
0.967	3.18861	0.06692
0.970	3.18728	0.06613
0.973	3.18592	0.06528
0.976	3.18452	0.06438
0.979	3.18309	0.06343
0.982	3.18160	0.06245
0.985	3.18007	0.06146
0.988	3.17848	0.06046
0.991	3.17684	0.05948
0.994	3.17515	0.05850
0.997	3.17341	0.05756
1.000	3.17162	0.05665
1.008	3.16702	0.05461
1.015	3.16237	0.05294
1.022	3.15780	0.05160
1.030	3.15335	0.05053
1.037	3.14908	0.04968
1.045	3.14501	0.04902
1.053	3.14114	0.04849
1.060	3.13748	0.04807
1.068	3.13403	0.04772
1.075	3.13077	0.04740
1.083	3.12770	0.04709
1.090	3.12478	0.04675
1.098	3.12201	0.04637
1.105	3.11931	0.04594
1.112	3.11668	0.04547
1.120	3.11408	0.04499
1.128	3.11152	0.04451
1.135	3.10900	0.04405
1.143	3.10651	0.04362
1.150	3.10406	0.04324
1.158	3.10168	0.04290
1.165	3.09938	0.04260
1.173	3.09715	0.04232
1.180	3.09500	0.04205
1.187	3.09292	0.04180
1.195	3.09091	0.04154
1.203	3.08896	0.04127
1.210	3.08706	0.04099
1.217	3.08520	0.04070
1.225	3.08337	0.04040
1.233	3.08157	0.04011
1.240	3.07979	0.03982
1.247	3.07804	0.03954
1.255	3.07632	0.03927
1.263	3.07462	0.03902
1.270	3.07295	0.03878
1.277	3.07131	0.03857
1.285	3.06971	0.03836
1.293	3.06815	0.03818
1.300	3.06662	0.03800
1.307	3.06513	0.03783
1.315	3.06366	0.03767
1.323	3.06223	0.03751
1.330	3.06084	0.03736
1.337	3.05947	0.03722
1.345	3.05813	0.03707
1.352	3.05682	0.03694
1.360	3.05553	0.03680
1.368	3.05426	0.03666
1.375	3.05302	0.03653
1.382	3.05180	0.03640
1.390	3.05060	0.03628
1.397	3.04941	0.03615
1.405	3.04824	0.03603
1.413	3.04709	0.03591
1.420	3.04595	0.03579
1.427	3.04481	0.03568
1.435	3.04368	0.03558
1.442	3.04257	0.03549
1.450	3.04146	0.03542
1.457	3.04036	0.03537
1.465	3.03927	0.03534
1.473	3.03820	0.03532
1.480	3.03715	0.03534
1.488	3.03612	0.03538
1.495	3.03511	0.03544
1.503	3.03414	0.03554
1.510	3.03321	0.03565
1.518	3.03232	0.03578
1.525	3.03148	0.03591
1.533	3.03068	0.03605
1.540	3.02992	0.03619
1.548	3.02921	0.03631
1.555	3.02853	0.03643
1.563	3.02789	0.03652
1.570	3.02729	0.03660
1.577	3.02671	0.03664
1.585	3.02615	0.03666
1.592	3.02561	0.03665
1.600	3.02508	0.03660
1.608	3.02454	0.03653
1.615	3.02400	0.03643
1.622	3.02345	0.03631
1.630	3.02289	0.03618
1.637	3.02231	0.03603
1.645	3.02172	0.03589
1.653	3.02112	0.03574
1.660	3.02050	0.03559
1.668	3.01986	0.03544
1.675	3.01922	0.03530
1.683	3.01856	0.03518
1.690	3.01790	0.03506
1.698	3.01722	0.03497
