Material: inorganic / MoS2 / Islam-e
Optical constants. K. M. Islam, R. Synowicki, T. Ismael, I. Oguntoye, N. Grinalds, M. D. Escarra. In-plane and out-of-plane optical properties of monolayer, few-layer, and thin-film MoS2 from 190 to 1700 nm and their application in photonic device design, Adv. Photonics Res., 2021 2000180 (Numerical data kindly provided by Kazi Islam)
Comments: Thin film (step height 33.5 nm). Out-of-plane (extraordinary ray, e).
Specs: {"n_absolute": true, "wavelength_vacuum": true, "film_thickness": "33.5 nm", "substrate": "SiO2/Si"}
wavelength (um)	n
0.954	2.96523
0.955	2.96516
0.956	2.96509
0.957	2.96501
0.958	2.96494
0.959	2.96486
0.960	2.96479
0.961	2.96472
0.962	2.96465
0.963	2.96457
0.964	2.96450
0.965	2.96443
0.966	2.96436
0.967	2.96428
0.968	2.96421
0.969	2.96414
0.970	2.96407
0.971	2.96400
0.972	2.96393
0.973	2.96386
0.974	2.96379
0.975	2.96372
0.976	2.96365
0.977	2.96358
0.978	2.96351
0.979	2.96344
0.980	2.96337
0.981	2.96330
0.982	2.96323
0.983	2.96317
0.984	2.96310
0.985	2.96303
0.986	2.96296
0.987	2.96290
0.988	2.96283
0.989	2.96276
0.990	2.96270
0.991	2.96263
0.992	2.96256
0.993	2.96250
0.994	2.96243
0.995	2.96236
0.996	2.96230
0.997	2.96223
0.998	2.96217
0.999	2.96210
1.000	2.96204
1.002	2.96188
1.005	2.96172
1.008	2.96156
1.010	2.96140
1.013	2.96125
1.015	2.96109
1.018	2.96094
1.020	2.96079
1.022	2.96063
1.025	2.96048
1.027	2.96033
1.030	2.96019
1.032	2.96004
1.035	2.95989
1.037	2.95975
1.040	2.95960
1.043	2.95946
1.045	2.95932
1.047	2.95918
1.050	2.95904
1.053	2.95890
1.055	2.95877
1.057	2.95863
1.060	2.95849
1.062	2.95836
1.065	2.95823
1.068	2.95809
1.070	2.95796
1.073	2.95783
1.075	2.95770
1.078	2.95757
1.080	2.95744
1.083	2.95732
1.085	2.95719
1.087	2.95706
1.090	2.95694
1.093	2.95682
1.095	2.95669
1.098	2.95657
1.100	2.95645
1.102	2.95633
1.105	2.95621
1.107	2.95609
1.110	2.95598
1.112	2.95586
1.115	2.95574
1.117	2.95563
1.120	2.95551
1.123	2.95540
1.125	2.95529
1.128	2.95517
1.130	2.95506
1.132	2.95495
1.135	2.95484
1.137	2.95473
1.140	2.95463
1.143	2.95452
1.145	2.95441
1.148	2.95430
1.150	2.95420
1.152	2.95409
1.155	2.95399
1.158	2.95389
1.160	2.95378
1.162	2.95368
1.165	2.95358
1.167	2.95348
1.170	2.95338
1.173	2.95328
1.175	2.95318
1.177	2.95308
1.180	2.95298
1.182	2.95289
1.185	2.95279
1.187	2.95269
1.190	2.95260
1.193	2.95251
1.195	2.95241
1.197	2.95232
1.200	2.95223
1.203	2.95213
1.205	2.95204
1.208	2.95195
1.210	2.95186
1.213	2.95177
1.215	2.95168
1.217	2.95159
1.220	2.95151
1.222	2.95142
1.225	2.95133
1.228	2.95124
1.230	2.95116
1.233	2.95107
1.235	2.95099
1.238	2.95090
1.240	2.95082
1.242	2.95074
1.245	2.95065
1.247	2.95057
1.250	2.95049
1.252	2.95041
1.255	2.95033
1.257	2.95025
1.260	2.95017
1.263	2.95009
1.265	2.95001
1.267	2.94993
1.270	2.94985
1.272	2.94977
1.275	2.94970
1.277	2.94962
1.280	2.94955
1.282	2.94947
1.285	2.94939
1.287	2.94932
1.290	2.94924
1.293	2.94917
1.295	2.94910
1.298	2.94902
1.300	2.94895
1.303	2.94888
1.305	2.94881
1.307	2.94874
1.310	2.94867
1.312	2.94860
1.315	2.94853
1.318	2.94846
1.320	2.94839
1.323	2.94832
1.325	2.94825
1.327	2.94818
1.330	2.94811
1.332	2.94805
1.335	2.94798
1.337	2.94791
1.340	2.94785
1.342	2.94778
1.345	2.94772
1.347	2.94765
1.350	2.94759
1.352	2.94752
1.355	2.94746
1.357	2.94739
1.360	2.94733
1.362	2.94727
1.365	2.94720
1.368	2.94714
1.370	2.94708
1.372	2.94702
1.375	2.94696
1.378	2.94690
1.380	2.94684
1.382	2.94678
1.385	2.94672
1.387	2.94666
1.390	2.94660
1.392	2.94654
1.395	2.94648
1.397	2.94642
1.400	2.94636
1.403	2.94631
1.405	2.94625
1.407	2.94619
1.410	2.94614
1.413	2.94608
1.415	2.94602
1.417	2.94597
1.420	2.94591
1.422	2.94586
1.425	2.94580
1.427	2.94575
1.430	2.94569
1.432	2.94564
1.435	2.94558
1.437	2.94553
1.440	2.94548
1.442	2.94543
1.445	2.94537
1.448	2.94532
1.450	2.94527
1.452	2.94522
1.455	2.94516
1.457	2.94511
1.460	2.94506
1.463	2.94501
1.465	2.94496
1.468	2.94491
1.470	2.94486
1.473	2.94481
1.475	2.94476
1.477	2.94471
1.480	2.94466
1.482	2.94462
1.485	2.94457
1.488	2.94452
1.490	2.94447
1.492	2.94442
1.495	2.94438
1.497	2.94433
1.500	2.94428
1.503	2.94423
1.505	2.94419
1.507	2.94414
1.510	2.94410
1.512	2.94405
1.515	2.94401
1.518	2.94396
1.520	2.94391
1.522	2.94387
1.525	2.94382
1.527	2.94378
1.530	2.94374
1.533	2.94369
1.535	2.94365
1.538	2.94360
1.540	2.94356
1.542	2.94352
1.545	2.94347
1.548	2.94343
1.550	2.94339
1.552	2.94335
1.555	2.94331
1.557	2.94326
1.560	2.94322
1.563	2.94318
1.565	2.94314
1.567	2.94310
1.570	2.94306
1.573	2.94302
1.575	2.94298
1.577	2.94294
1.580	2.94290
1.583	2.94286
1.585	2.94282
1.588	2.94278
1.590	2.94274
1.592	2.94270
1.595	2.94266
1.597	2.94262
1.600	2.94258
1.602	2.94254
1.605	2.94251
1.608	2.94247
1.610	2.94243
1.613	2.94239
1.615	2.94235
1.618	2.94232
1.620	2.94228
1.622	2.94224
1.625	2.94221
1.627	2.94217
1.630	2.94213
1.633	2.94210
1.635	2.94206
1.637	2.94202
1.640	2.94199
1.642	2.94195
1.645	2.94192
1.647	2.94188
1.650	2.94185
1.653	2.94181
1.655	2.94178
1.657	2.94174
1.660	2.94171
1.662	2.94167
1.665	2.94164
1.668	2.94160
1.670	2.94157
1.673	2.94154
1.675	2.94150
1.678	2.94147
1.680	2.94144
1.683	2.94140
1.685	2.94137
1.687	2.94134
1.690	2.94130
1.693	2.94127
1.695	2.94124
1.698	2.94121
1.700	2.94117
