Material: inorganic / MoS2 / Munkhbat-o
Optical constants. B. Munkhbat, P. Wrobel, T. J. Antosiewicz, T. O. Shegai. Optical constants of several multilayer transition metal dichalcogenides spectroscopic ellipsometry in the 300–1700 nm range: high index, anisotropy, and hyperbolicity, ACS Photonics 9, 2398–2407 (2022) (Numerical data kindly provided by Tomasz Antosiewicz)
Comments: Multilayer flakes. In-plane (ordinary ray, o). Room temperature.
Specs: {"n_absolute": true, "wavelength_vacuum": true}
wavelength (um)	n	k
3.000000e-01	3.126059e+00	2.491241e+00
3.030000e-01	3.143375e+00	2.447387e+00
3.060000e-01	3.153204e+00	2.405054e+00
3.090000e-01	3.155822e+00	2.365357e+00
3.120000e-01	3.151642e+00	2.329381e+00
3.150000e-01	3.141179e+00	2.298196e+00
3.180000e-01	3.125083e+00	2.272932e+00
3.210000e-01	3.104204e+00	2.254853e+00
3.240000e-01	3.079779e+00	2.245507e+00
3.270000e-01	3.053968e+00	2.246941e+00
3.300000e-01	3.031437e+00	2.261675e+00
3.330000e-01	3.023398e+00	2.289943e+00
3.360000e-01	3.048680e+00	2.312694e+00
3.390000e-01	3.080447e+00	2.277789e+00
3.420000e-01	3.040835e+00	2.226275e+00
3.450000e-01	2.971348e+00	2.225562e+00
3.480000e-01	2.911991e+00	2.258787e+00
3.510000e-01	2.866140e+00	2.308784e+00
3.540000e-01	2.831605e+00	2.369298e+00
3.570000e-01	2.807195e+00	2.438049e+00
3.600000e-01	2.792773e+00	2.513856e+00
3.630000e-01	2.788830e+00	2.595708e+00
3.660000e-01	2.796045e+00	2.682273e+00
3.690000e-01	2.814883e+00	2.772347e+00
3.720000e-01	2.846077e+00	2.864614e+00
3.750000e-01	2.890285e+00	2.957437e+00
3.780000e-01	2.948019e+00	3.048947e+00
3.810000e-01	3.019561e+00	3.136952e+00
3.840000e-01	3.104798e+00	3.218966e+00
3.870000e-01	3.203064e+00	3.292275e+00
3.900000e-01	3.312977e+00	3.354076e+00
3.930000e-01	3.432304e+00	3.401707e+00
3.960000e-01	3.557904e+00	3.432966e+00
3.990000e-01	3.685817e+00	3.446511e+00
4.020000e-01	3.811540e+00	3.442235e+00
4.050000e-01	3.930518e+00	3.421538e+00
4.080000e-01	4.038751e+00	3.387353e+00
4.110000e-01	4.133407e+00	3.343881e+00
4.140000e-01	4.213258e+00	3.296065e+00
4.170000e-01	4.278847e+00	3.248932e+00
4.200000e-01	4.332361e+00	3.206938e+00
4.230000e-01	4.377281e+00	3.173467e+00
4.260000e-01	4.417920e+00	3.150519e+00
4.290000e-01	4.458919e+00	3.138579e+00
4.320000e-01	4.504797e+00	3.136639e+00
4.350000e-01	4.559527e+00	3.142323e+00
4.380000e-01	4.626185e+00	3.152102e+00
4.410000e-01	4.706638e+00	3.161581e+00
4.440000e-01	4.801318e+00	3.165876e+00
4.470000e-01	4.909079e+00	3.160062e+00
4.500000e-01	5.027206e+00	3.139688e+00
4.530000e-01	5.151606e+00	3.101302e+00
4.560000e-01	5.277197e+00	3.042910e+00
4.590000e-01	5.398493e+00	2.964266e+00
4.620000e-01	5.510264e+00	2.866894e+00
4.650000e-01	5.608164e+00	2.753838e+00
4.680000e-01	5.689175e+00	2.629170e+00
4.710000e-01	5.751777e+00	2.497392e+00
4.740000e-01	5.795864e+00	2.362872e+00
4.770000e-01	5.822465e+00	2.229429e+00
4.800000e-01	5.833370e+00	2.100098e+00
4.830000e-01	5.830782e+00	1.977071e+00
4.860000e-01	5.817012e+00	1.861759e+00
4.890000e-01	5.794285e+00	1.754920e+00
4.920000e-01	5.764606e+00	1.656813e+00
4.950000e-01	5.729715e+00	1.567336e+00
4.980000e-01	5.691065e+00	1.486152e+00
5.010000e-01	5.649845e+00	1.412782e+00
5.040000e-01	5.607005e+00	1.346672e+00
5.070000e-01	5.563292e+00	1.287243e+00
5.100000e-01	5.519285e+00	1.233924e+00
5.130000e-01	5.475426e+00	1.186170e+00
5.160000e-01	5.432044e+00	1.143473e+00
5.190000e-01	5.389386e+00	1.105368e+00
5.220000e-01	5.347625e+00	1.071436e+00
5.250000e-01	5.306885e+00	1.041301e+00
5.280000e-01	5.267248e+00	1.014629e+00
5.310000e-01	5.228764e+00	9.911251e-01
5.340000e-01	5.191459e+00	9.705315e-01
5.370000e-01	5.155342e+00	9.526232e-01
5.400000e-01	5.120410e+00	9.372058e-01
5.430000e-01	5.086649e+00	9.241126e-01
5.460000e-01	5.054040e+00	9.132030e-01
5.490000e-01	5.022560e+00	9.043599e-01
5.520000e-01	4.992184e+00	8.974890e-01
5.550000e-01	4.962887e+00	8.925171e-01
5.580000e-01	4.934646e+00	8.893920e-01
5.610000e-01	4.907440e+00	8.880819e-01
5.640000e-01	4.881255e+00	8.885757e-01
5.670000e-01	4.856080e+00	8.908840e-01
5.700000e-01	4.831917e+00	8.950402e-01
5.730000e-01	4.808776e+00	9.011024e-01
5.760000e-01	4.786684e+00	9.091563e-01
5.790000e-01	4.765689e+00	9.193187e-01
5.820000e-01	4.745866e+00	9.317417e-01
5.850000e-01	4.727325e+00	9.466193e-01
5.880000e-01	4.710229e+00	9.641931e-01
5.910000e-01	4.694810e+00	9.847613e-01
5.940000e-01	4.681398e+00	1.008687e+00
5.970000e-01	4.670465e+00	1.036407e+00
6.000000e-01	4.662681e+00	1.068436e+00
6.030000e-01	4.659012e+00	1.105362e+00
6.060000e-01	4.660854e+00	1.147815e+00
6.090000e-01	4.670240e+00	1.196386e+00
6.120000e-01	4.690132e+00	1.251419e+00
6.150000e-01	4.724826e+00	1.312564e+00
6.180000e-01	4.780389e+00	1.377813e+00
6.210000e-01	4.864805e+00	1.441587e+00
6.240000e-01	4.986696e+00	1.491331e+00
6.270000e-01	5.149721e+00	1.503073e+00
6.300000e-01	5.338310e+00	1.441535e+00
6.330000e-01	5.499301e+00	1.281123e+00
6.360000e-01	5.556671e+00	1.054029e+00
6.390000e-01	5.490201e+00	8.598766e-01
6.420000e-01	5.385916e+00	7.692089e-01
6.450000e-01	5.334987e+00	7.191963e-01
6.480000e-01	5.279744e+00	6.322262e-01
6.510000e-01	5.170372e+00	5.655481e-01
6.540000e-01	5.044993e+00	5.487133e-01
6.570000e-01	4.919621e+00	5.762855e-01
6.600000e-01	4.801273e+00	6.482996e-01
6.630000e-01	4.697405e+00	7.734597e-01
6.660000e-01	4.629303e+00	9.697525e-01
6.690000e-01	4.653484e+00	1.252172e+00
6.720000e-01	4.878188e+00	1.577275e+00
6.750000e-01	5.372199e+00	1.741366e+00
6.780000e-01	5.904121e+00	1.502654e+00
6.810000e-01	6.119081e+00	1.028865e+00
6.840000e-01	6.060787e+00	6.417578e-01
6.870000e-01	5.915061e+00	4.039613e-01
6.900000e-01	5.767696e+00	2.661444e-01
6.930000e-01	5.640088e+00	1.847523e-01
6.960000e-01	5.533381e+00	1.348095e-01
6.990000e-01	5.444191e+00	1.029373e-01
7.020000e-01	5.368862e+00	8.186940e-02
7.050000e-01	5.304394e+00	6.751705e-02
7.080000e-01	5.248486e+00	5.748780e-02
7.110000e-01	5.199407e+00	5.032874e-02
7.140000e-01	5.155854e+00	4.512744e-02
7.170000e-01	5.116839e+00	4.129352e-02
7.200000e-01	5.081603e+00	3.843485e-02
7.230000e-01	5.049564e+00	3.628483e-02
7.260000e-01	5.020282e+00	3.465840e-02
7.290000e-01	4.993474e+00	3.335419e-02
7.320000e-01	4.968717e+00	3.211049e-02
7.350000e-01	4.945645e+00	3.091211e-02
7.380000e-01	4.924016e+00	2.975830e-02
7.410000e-01	4.903645e+00	2.864806e-02
7.440000e-01	4.884386e+00	2.758032e-02
7.470000e-01	4.866117e+00	2.655397e-02
7.500000e-01	4.848738e+00	2.556788e-02
7.530000e-01	4.832164e+00	2.462095e-02
7.560000e-01	4.816322e+00	2.371210e-02
7.590000e-01	4.801149e+00	2.284028e-02
7.620000e-01	4.786592e+00	2.200448e-02
7.650000e-01	4.772603e+00	2.120372e-02
7.680000e-01	4.759140e+00	2.043703e-02
7.710000e-01	4.746167e+00	1.970352e-02
7.740000e-01	4.733651e+00	1.900230e-02
7.770000e-01	4.721563e+00	1.833251e-02
7.800000e-01	4.709880e+00	1.769322e-02
7.830000e-01	4.698578e+00	1.707897e-02
7.860000e-01	4.687633e+00	1.648678e-02
7.890000e-01	4.677024e+00	1.591601e-02
7.920000e-01	4.666732e+00	1.536604e-02
7.950000e-01	4.656739e+00	1.483627e-02
7.980000e-01	4.647031e+00	1.432613e-02
8.010000e-01	4.637593e+00	1.383507e-02
8.040000e-01	4.628411e+00	1.336256e-02
8.070000e-01	4.619476e+00	1.290808e-02
8.100000e-01	4.610777e+00	1.247047e-02
8.130000e-01	4.602304e+00	1.204576e-02
8.160000e-01	4.594045e+00	1.163308e-02
8.190000e-01	4.585989e+00	1.123208e-02
8.220000e-01	4.578128e+00	1.084245e-02
8.250000e-01	4.570454e+00	1.046386e-02
8.280000e-01	4.562958e+00	1.009600e-02
8.310000e-01	4.555634e+00	9.738587e-03
8.340000e-01	4.548474e+00	9.391327e-03
8.370000e-01	4.541473e+00	9.053951e-03
8.400000e-01	4.534624e+00	8.726195e-03
8.430000e-01	4.527921e+00	8.407805e-03
8.460000e-01	4.521360e+00	8.098537e-03
8.490000e-01	4.514935e+00	7.798156e-03
8.520000e-01	4.508642e+00	7.506433e-03
8.550000e-01	4.502476e+00	7.223149e-03
8.580000e-01	4.496432e+00	6.948093e-03
8.610000e-01	4.490508e+00	6.681059e-03
8.640000e-01	4.484698e+00	6.421849e-03
8.670000e-01	4.478999e+00	6.170273e-03
8.700000e-01	4.473408e+00	5.926145e-03
8.730000e-01	4.467921e+00	5.689287e-03
8.760000e-01	4.462536e+00	5.459527e-03
8.790000e-01	4.457249e+00	5.236697e-03
8.820000e-01	4.452057e+00	5.020634e-03
8.850000e-01	4.446958e+00	4.811184e-03
8.880000e-01	4.441948e+00	4.608193e-03
8.910000e-01	4.437026e+00	4.411515e-03
8.940000e-01	4.432189e+00	4.221007e-03
8.970000e-01	4.427435e+00	4.036532e-03
9.000000e-01	4.422761e+00	3.857956e-03
9.030000e-01	4.418166e+00	3.685149e-03
9.060000e-01	4.413646e+00	3.517986e-03
9.090000e-01	4.409201e+00	3.356344e-03
9.120000e-01	4.404829e+00	3.200105e-03
9.150000e-01	4.400526e+00	3.049154e-03
9.180000e-01	4.396293e+00	2.903380e-03
9.210000e-01	4.392127e+00	2.762674e-03
9.240000e-01	4.388026e+00	2.626932e-03
9.270000e-01	4.383989e+00	2.496051e-03
9.300000e-01	4.380014e+00	2.369932e-03
9.330000e-01	4.376101e+00	2.248479e-03
9.360000e-01	4.372247e+00	2.131597e-03
9.390000e-01	4.368451e+00	2.019196e-03
9.420000e-01	4.364712e+00	1.911187e-03
9.450000e-01	4.361028e+00	1.807484e-03
9.480000e-01	4.357399e+00	1.708004e-03
9.510000e-01	4.353823e+00	1.612663e-03
9.540000e-01	4.350299e+00	1.521384e-03
9.570000e-01	4.346826e+00	1.434089e-03
9.600000e-01	4.343403e+00	1.350702e-03
9.630000e-01	4.340029e+00	1.271151e-03
9.660000e-01	4.336703e+00	1.195365e-03
9.690000e-01	4.333423e+00	1.123272e-03
9.720000e-01	4.330189e+00	1.054807e-03
9.750000e-01	4.327000e+00	9.899035e-04
9.780000e-01	4.323856e+00	9.284965e-04
9.810000e-01	4.320754e+00	8.705237e-04
9.840000e-01	4.317695e+00	8.159240e-04
9.870000e-01	4.314678e+00	7.646380e-04
9.900000e-01	4.311702e+00	7.166077e-04
9.930000e-01	4.308765e+00	6.717762e-04
9.960000e-01	4.305868e+00	6.300885e-04
9.990000e-01	4.303010e+00	5.914906e-04
1.005000e+00	4.297407e+00	5.233550e-04
1.012500e+00	4.290609e+00	4.546552e-04
1.020000e+00	4.284031e+00	4.035558e-04
1.027500e+00	4.277666e+00	3.693485e-04
1.035000e+00	4.271508e+00	3.513649e-04
1.042500e+00	4.265554e+00	3.428560e-04
1.050000e+00	4.259791e+00	3.348032e-04
1.057500e+00	4.254207e+00	3.271128e-04
1.065000e+00	4.248791e+00	3.197620e-04
1.072500e+00	4.243536e+00	3.127294e-04
1.080000e+00	4.238435e+00	3.059955e-04
1.087500e+00	4.233480e+00	2.995422e-04
1.095000e+00	4.228666e+00	2.933531e-04
1.102500e+00	4.223986e+00	2.874125e-04
1.110000e+00	4.219435e+00	2.817063e-04
1.117500e+00	4.215007e+00	2.762213e-04
1.125000e+00	4.210698e+00	2.709451e-04
1.132500e+00	4.206502e+00	2.658665e-04
1.140000e+00	4.202417e+00	2.609747e-04
1.147500e+00	4.198436e+00	2.562598e-04
1.155000e+00	4.194558e+00	2.517128e-04
1.162500e+00	4.190777e+00	2.473249e-04
1.170000e+00	4.187090e+00	2.430882e-04
1.177500e+00	4.183494e+00	2.389950e-04
1.185000e+00	4.179986e+00	2.350385e-04
1.192500e+00	4.176562e+00	2.312120e-04
1.200000e+00	4.173220e+00	2.275092e-04
1.207500e+00	4.169957e+00	2.239244e-04
1.215000e+00	4.166770e+00	2.204522e-04
1.222500e+00	4.163657e+00	2.170873e-04
1.230000e+00	4.160615e+00	2.138251e-04
1.237500e+00	4.157643e+00	2.106608e-04
1.245000e+00	4.154737e+00	2.075902e-04
1.252500e+00	4.151896e+00	2.046093e-04
1.260000e+00	4.149117e+00	2.017142e-04
1.267500e+00	4.146399e+00	1.989014e-04
1.275000e+00	4.143740e+00	1.961673e-04
1.282500e+00	4.141138e+00	1.935088e-04
1.290000e+00	4.138591e+00	1.909229e-04
1.297500e+00	4.136098e+00	1.884065e-04
1.305000e+00	4.133657e+00	1.859569e-04
1.312500e+00	4.131267e+00	1.835716e-04
1.320000e+00	4.128926e+00	1.812481e-04
1.327500e+00	4.126632e+00	1.789840e-04
1.335000e+00	4.124385e+00	1.767770e-04
1.342500e+00	4.122183e+00	1.746250e-04
1.350000e+00	4.120024e+00	1.725261e-04
1.357500e+00	4.117908e+00	1.704782e-04
1.365000e+00	4.115834e+00	1.684795e-04
1.372500e+00	4.113800e+00	1.665284e-04
1.380000e+00	4.111805e+00	1.646230e-04
1.387500e+00	4.109848e+00	1.627618e-04
1.395000e+00	4.107928e+00	1.609434e-04
1.402500e+00	4.106044e+00	1.591661e-04
1.410000e+00	4.104196e+00	1.574287e-04
1.417500e+00	4.102382e+00	1.557299e-04
1.425000e+00	4.100601e+00	1.540682e-04
1.432500e+00	4.098853e+00	1.524426e-04
1.440000e+00	4.097137e+00	1.508519e-04
1.447500e+00	4.095451e+00	1.492949e-04
1.455000e+00	4.093796e+00	1.477706e-04
1.462500e+00	4.092170e+00	1.462779e-04
1.470000e+00	4.090573e+00	1.448159e-04
1.477500e+00	4.089004e+00	1.433836e-04
1.485000e+00	4.087462e+00	1.419801e-04
1.492500e+00	4.085947e+00	1.406046e-04
1.500000e+00	4.084458e+00	1.392562e-04
1.507500e+00	4.082994e+00	1.379341e-04
1.515000e+00	4.081556e+00	1.366376e-04
1.522500e+00	4.080141e+00	1.353658e-04
1.530000e+00	4.078750e+00	1.341182e-04
1.537500e+00	4.077382e+00	1.328939e-04
1.545000e+00	4.076037e+00	1.316924e-04
1.552500e+00	4.074714e+00	1.305130e-04
1.560000e+00	4.073413e+00	1.293551e-04
1.567500e+00	4.072132e+00	1.282180e-04
1.575000e+00	4.070873e+00	1.271013e-04
1.582500e+00	4.069633e+00	1.260044e-04
1.590000e+00	4.068413e+00	1.249268e-04
1.597500e+00	4.067213e+00	1.238678e-04
1.605000e+00	4.066031e+00	1.228272e-04
1.612500e+00	4.064868e+00	1.218043e-04
1.620000e+00	4.063723e+00	1.207987e-04
1.627500e+00	4.062596e+00	1.198100e-04
1.635000e+00	4.061486e+00	1.188377e-04
1.642500e+00	4.060393e+00	1.178814e-04
1.650000e+00	4.059317e+00	1.169408e-04
1.657500e+00	4.058257e+00	1.160154e-04
1.665000e+00	4.057213e+00	1.151049e-04
1.672500e+00	4.056184e+00	1.142089e-04
1.680000e+00	4.055171e+00	1.133270e-04
1.687500e+00	4.054173e+00	1.124589e-04
