Material: inorganic / MoS2 / Munkhbat-e
Optical constants. B. Munkhbat, P. Wrobel, T. J. Antosiewicz, T. O. Shegai. Optical constants of several multilayer transition metal dichalcogenides spectroscopic ellipsometry in the 300–1700 nm range: high index, anisotropy, and hyperbolicity, ACS Photonics 9, 2398–2407 (2022) (Numerical data kindly provided by Tomasz Antosiewicz)
Comments: Multilayer flakes. Out-of-plane (extraordinary ray, e). Room temperature.
Specs: {"n_absolute": true, "wavelength_vacuum": true}
wavelength (um)	n
3.000000E-01	2.742909E+00
3.030000E-01	2.742722E+00
3.060000E-01	2.742546E+00
3.090000E-01	2.742379E+00
3.120000E-01	2.742221E+00
3.150000E-01	2.742071E+00
3.180000E-01	2.741928E+00
3.210000E-01	2.741792E+00
3.240000E-01	2.741663E+00
3.270000E-01	2.741539E+00
3.300000E-01	2.741421E+00
3.330000E-01	2.741309E+00
3.360000E-01	2.741201E+00
3.390000E-01	2.741098E+00
3.420000E-01	2.740999E+00
3.450000E-01	2.740905E+00
3.480000E-01	2.740814E+00
3.510000E-01	2.740727E+00
3.540000E-01	2.740643E+00
3.570000E-01	2.740563E+00
3.600000E-01	2.740485E+00
3.630000E-01	2.740411E+00
3.660000E-01	2.740339E+00
3.690000E-01	2.740269E+00
3.720000E-01	2.740203E+00
3.750000E-01	2.740138E+00
3.780000E-01	2.740076E+00
3.810000E-01	2.740016E+00
3.840000E-01	2.739958E+00
3.870000E-01	2.739902E+00
3.900000E-01	2.739848E+00
3.930000E-01	2.739795E+00
3.960000E-01	2.739744E+00
3.990000E-01	2.739695E+00
4.020000E-01	2.739647E+00
4.050000E-01	2.739601E+00
4.080000E-01	2.739556E+00
4.110000E-01	2.739513E+00
4.140000E-01	2.739470E+00
4.170000E-01	2.739429E+00
4.200000E-01	2.739389E+00
4.230000E-01	2.739351E+00
4.260000E-01	2.739313E+00
4.290000E-01	2.739277E+00
4.320000E-01	2.739241E+00
4.350000E-01	2.739206E+00
4.380000E-01	2.739173E+00
4.410000E-01	2.739140E+00
4.440000E-01	2.739108E+00
4.470000E-01	2.739077E+00
4.500000E-01	2.739047E+00
4.530000E-01	2.739017E+00
4.560000E-01	2.738988E+00
4.590000E-01	2.738960E+00
4.620000E-01	2.738933E+00
4.650000E-01	2.738906E+00
4.680000E-01	2.738880E+00
4.710000E-01	2.738855E+00
4.740000E-01	2.738830E+00
4.770000E-01	2.738806E+00
4.800000E-01	2.738782E+00
4.830000E-01	2.738759E+00
4.860000E-01	2.738737E+00
4.890000E-01	2.738715E+00
4.920000E-01	2.738693E+00
4.950000E-01	2.738672E+00
4.980000E-01	2.738651E+00
5.010000E-01	2.738631E+00
5.040000E-01	2.738612E+00
5.070000E-01	2.738592E+00
5.100000E-01	2.738573E+00
5.130000E-01	2.738555E+00
5.160000E-01	2.738537E+00
5.190000E-01	2.738519E+00
5.220000E-01	2.738502E+00
5.250000E-01	2.738485E+00
5.280000E-01	2.738468E+00
5.310000E-01	2.738452E+00
5.340000E-01	2.738436E+00
5.370000E-01	2.738420E+00
5.400000E-01	2.738405E+00
5.430000E-01	2.738390E+00
5.460000E-01	2.738375E+00
5.490000E-01	2.738361E+00
5.520000E-01	2.738347E+00
5.550000E-01	2.738333E+00
5.580000E-01	2.738319E+00
5.610000E-01	2.738306E+00
5.640000E-01	2.738292E+00
5.670000E-01	2.738280E+00
5.700000E-01	2.738267E+00
5.730000E-01	2.738255E+00
5.760000E-01	2.738242E+00
5.790000E-01	2.738230E+00
5.820000E-01	2.738219E+00
5.850000E-01	2.738207E+00
5.880000E-01	2.738196E+00
5.910000E-01	2.738185E+00
5.940000E-01	2.738174E+00
5.970000E-01	2.738163E+00
6.000000E-01	2.738152E+00
6.030000E-01	2.738142E+00
6.060000E-01	2.738132E+00
6.090000E-01	2.738122E+00
6.120000E-01	2.738112E+00
6.150000E-01	2.738102E+00
6.180000E-01	2.738092E+00
6.210000E-01	2.738083E+00
6.240000E-01	2.738074E+00
6.270000E-01	2.738065E+00
6.300000E-01	2.738056E+00
6.330000E-01	2.738047E+00
6.360000E-01	2.738038E+00
6.390000E-01	2.738030E+00
6.420000E-01	2.738021E+00
6.450000E-01	2.738013E+00
6.480000E-01	2.738005E+00
6.510000E-01	2.737997E+00
6.540000E-01	2.737989E+00
6.570000E-01	2.737981E+00
6.600000E-01	2.737974E+00
6.630000E-01	2.737966E+00
6.660000E-01	2.737959E+00
6.690000E-01	2.737951E+00
6.720000E-01	2.737944E+00
6.750000E-01	2.737937E+00
6.780000E-01	2.737930E+00
6.810000E-01	2.737923E+00
6.840000E-01	2.737916E+00
6.870000E-01	2.737910E+00
6.900000E-01	2.737903E+00
6.930000E-01	2.737897E+00
6.960000E-01	2.737890E+00
6.990000E-01	2.737884E+00
7.020000E-01	2.737878E+00
7.050000E-01	2.737872E+00
7.080000E-01	2.737866E+00
7.110000E-01	2.737860E+00
7.140000E-01	2.737854E+00
7.170000E-01	2.737848E+00
7.200000E-01	2.737842E+00
7.230000E-01	2.737837E+00
7.260000E-01	2.737831E+00
7.290000E-01	2.737826E+00
7.320000E-01	2.737820E+00
7.350000E-01	2.737815E+00
7.380000E-01	2.737810E+00
7.410000E-01	2.737804E+00
7.440000E-01	2.737799E+00
7.470000E-01	2.737794E+00
7.500000E-01	2.737789E+00
7.530000E-01	2.737784E+00
7.560000E-01	2.737779E+00
7.590000E-01	2.737775E+00
7.620000E-01	2.737770E+00
7.650000E-01	2.737765E+00
7.680000E-01	2.737761E+00
7.710000E-01	2.737756E+00
7.740000E-01	2.737752E+00
7.770000E-01	2.737747E+00
7.800000E-01	2.737743E+00
7.830000E-01	2.737738E+00
7.860000E-01	2.737734E+00
7.890000E-01	2.737730E+00
7.920000E-01	2.737726E+00
7.950000E-01	2.737722E+00
7.980000E-01	2.737717E+00
8.010000E-01	2.737713E+00
8.040000E-01	2.737709E+00
8.070000E-01	2.737705E+00
8.100000E-01	2.737702E+00
8.130000E-01	2.737698E+00
8.160000E-01	2.737694E+00
8.190000E-01	2.737690E+00
8.220000E-01	2.737687E+00
8.250000E-01	2.737683E+00
8.280000E-01	2.737679E+00
8.310000E-01	2.737676E+00
8.340000E-01	2.737672E+00
8.370000E-01	2.737669E+00
8.400000E-01	2.737665E+00
8.430000E-01	2.737662E+00
8.460000E-01	2.737658E+00
8.490000E-01	2.737655E+00
8.520000E-01	2.737652E+00
8.550000E-01	2.737648E+00
8.580000E-01	2.737645E+00
8.610000E-01	2.737642E+00
8.640000E-01	2.737639E+00
8.670000E-01	2.737636E+00
8.700000E-01	2.737633E+00
8.730000E-01	2.737630E+00
8.760000E-01	2.737627E+00
8.790000E-01	2.737624E+00
8.820000E-01	2.737621E+00
8.850000E-01	2.737618E+00
8.880000E-01	2.737615E+00
8.910000E-01	2.737612E+00
8.940000E-01	2.737609E+00
8.970000E-01	2.737606E+00
9.000000E-01	2.737604E+00
9.030000E-01	2.737601E+00
9.060000E-01	2.737598E+00
9.090000E-01	2.737596E+00
9.120000E-01	2.737593E+00
9.150000E-01	2.737590E+00
9.180000E-01	2.737588E+00
9.210000E-01	2.737585E+00
9.240000E-01	2.737583E+00
9.270000E-01	2.737580E+00
9.300000E-01	2.737578E+00
9.330000E-01	2.737575E+00
9.360000E-01	2.737573E+00
9.390000E-01	2.737570E+00
9.420000E-01	2.737568E+00
9.450000E-01	2.737565E+00
9.480000E-01	2.737563E+00
9.510000E-01	2.737561E+00
9.540000E-01	2.737558E+00
9.570000E-01	2.737556E+00
9.600000E-01	2.737554E+00
9.630000E-01	2.737552E+00
9.660000E-01	2.737549E+00
9.690000E-01	2.737547E+00
9.720000E-01	2.737545E+00
9.750000E-01	2.737543E+00
9.780000E-01	2.737541E+00
9.810000E-01	2.737539E+00
9.840000E-01	2.737537E+00
9.870000E-01	2.737535E+00
9.900000E-01	2.737533E+00
9.930000E-01	2.737531E+00
9.960000E-01	2.737529E+00
9.990000E-01	2.737527E+00
1.005000E+00	2.737523E+00
1.012500E+00	2.737518E+00
1.020000E+00	2.737513E+00
1.027500E+00	2.737509E+00
1.035000E+00	2.737504E+00
1.042500E+00	2.737500E+00
1.050000E+00	2.737495E+00
1.057500E+00	2.737491E+00
1.065000E+00	2.737487E+00
1.072500E+00	2.737483E+00
1.080000E+00	2.737479E+00
1.087500E+00	2.737475E+00
1.095000E+00	2.737472E+00
1.102500E+00	2.737468E+00
1.110000E+00	2.737464E+00
1.117500E+00	2.737461E+00
1.125000E+00	2.737457E+00
1.132500E+00	2.737454E+00
1.140000E+00	2.737451E+00
1.147500E+00	2.737448E+00
1.155000E+00	2.737444E+00
1.162500E+00	2.737441E+00
1.170000E+00	2.737438E+00
1.177500E+00	2.737435E+00
1.185000E+00	2.737432E+00
1.192500E+00	2.737429E+00
1.200000E+00	2.737427E+00
1.207500E+00	2.737424E+00
1.215000E+00	2.737421E+00
1.222500E+00	2.737419E+00
1.230000E+00	2.737416E+00
1.237500E+00	2.737413E+00
1.245000E+00	2.737411E+00
1.252500E+00	2.737408E+00
1.260000E+00	2.737406E+00
1.267500E+00	2.737404E+00
1.275000E+00	2.737401E+00
1.282500E+00	2.737399E+00
1.290000E+00	2.737397E+00
1.297500E+00	2.737395E+00
1.305000E+00	2.737392E+00
1.312500E+00	2.737390E+00
1.320000E+00	2.737388E+00
1.327500E+00	2.737386E+00
1.335000E+00	2.737384E+00
1.342500E+00	2.737382E+00
1.350000E+00	2.737380E+00
1.357500E+00	2.737378E+00
1.365000E+00	2.737376E+00
1.372500E+00	2.737374E+00
1.380000E+00	2.737373E+00
1.387500E+00	2.737371E+00
1.395000E+00	2.737369E+00
1.402500E+00	2.737367E+00
1.410000E+00	2.737366E+00
1.417500E+00	2.737364E+00
1.425000E+00	2.737362E+00
1.432500E+00	2.737361E+00
1.440000E+00	2.737359E+00
1.447500E+00	2.737357E+00
1.455000E+00	2.737356E+00
1.462500E+00	2.737354E+00
1.470000E+00	2.737353E+00
1.477500E+00	2.737351E+00
1.485000E+00	2.737350E+00
1.492500E+00	2.737349E+00
1.500000E+00	2.737347E+00
1.507500E+00	2.737346E+00
1.515000E+00	2.737344E+00
1.522500E+00	2.737343E+00
1.530000E+00	2.737342E+00
1.537500E+00	2.737340E+00
1.545000E+00	2.737339E+00
1.552500E+00	2.737338E+00
1.560000E+00	2.737337E+00
1.567500E+00	2.737335E+00
1.575000E+00	2.737334E+00
1.582500E+00	2.737333E+00
1.590000E+00	2.737332E+00
1.597500E+00	2.737331E+00
1.605000E+00	2.737329E+00
1.612500E+00	2.737328E+00
1.620000E+00	2.737327E+00
1.627500E+00	2.737326E+00
1.635000E+00	2.737325E+00
1.642500E+00	2.737324E+00
1.650000E+00	2.737323E+00
1.657500E+00	2.737322E+00
1.665000E+00	2.737321E+00
1.672500E+00	2.737320E+00
1.680000E+00	2.737319E+00
1.687500E+00	2.737318E+00
