Material: inorganic / MoS2 / Song-8L
Optical constants. B. Song, H. Gu, M. Fang, X. Chen, H. Jiang, R. Wang, T. Zhai, Y.-T. Ho, S. Liu. Layer-dependent dielectric function of wafer-scale 2D MoS2, Adv. Optical Mater. 7, 1801250 (2019) (Numerical data kindly provided by Baokun Song)
Comments: 8-layer, 8L
Specs: {"n_absolute": true, "wavelength_vacuum": true, "film_thickness": "8L", "substrate": "c-sapphire"}
wavelength (um)	n	k
0.1930	1.341584	2.307148
0.1960	1.400585	2.330988
0.1990	1.457816	2.350494
0.2020	1.512632	2.366148
0.2050	1.564498	2.378574
0.2080	1.613022	2.388513
0.2110	1.657990	2.396782
0.2140	1.699379	2.404225
0.2170	1.737360	2.411662
0.2200	1.772284	2.419845
0.2230	1.804657	2.429418
0.2260	1.835109	2.440881
0.2290	1.864356	2.454575
0.2320	1.893160	2.470663
0.2350	1.922290	2.489138
0.2380	1.952485	2.509823
0.2410	1.984423	2.532385
0.2440	2.018691	2.556356
0.2470	2.055763	2.581151
0.2500	2.095984	2.606096
0.2530	2.139550	2.630451
0.2560	2.186505	2.653441
0.2590	2.236730	2.674285
0.2620	2.289945	2.692226
0.2650	2.345717	2.706561
0.2680	2.403465	2.716676
0.2710	2.462481	2.722070
0.2740	2.521957	2.722388
0.2770	2.581010	2.717436
0.2800	2.638724	2.707198
0.2830	2.694186	2.691839
0.2860	2.746527	2.671698
0.2890	2.794956	2.647276
0.2920	2.838795	2.619208
0.2950	2.877495	2.588232
0.2980	2.910655	2.555160
0.3010	2.938020	2.520840
0.3040	2.959478	2.486129
0.3070	2.975048	2.451864
0.3100	2.984867	2.418846
0.3130	2.989165	2.387825
0.3160	2.988255	2.359495
0.3190	2.982513	2.334488
0.3220	2.972366	2.313384
0.3250	2.958281	2.296709
0.3280	2.940764	2.284943
0.3310	2.920354	2.278529
0.3340	2.897630	2.277874
0.3370	2.873211	2.283355
0.3400	2.847770	2.295315
0.3430	2.822041	2.314063
0.3460	2.796829	2.339859
0.3490	2.773022	2.372906
0.3520	2.751599	2.413323
0.3550	2.733633	2.461121
0.3580	2.720290	2.516168
0.3610	2.712820	2.578155
0.3640	2.712537	2.646547
0.3670	2.720782	2.720538
0.3700	2.738872	2.799001
0.3730	2.768020	2.880442
0.3760	2.809222	2.962965
0.3790	2.863102	3.044268
0.3820	2.929727	3.121704
0.3850	3.008397	3.192429
0.3880	3.097480	3.253681
0.3910	3.194357	3.303192
0.3940	3.295601	3.339655
0.3970	3.397413	3.363122
0.4000	3.496290	3.375138
0.4030	3.589719	3.378497
0.4060	3.676658	3.376640
0.4090	3.757634	3.372899
0.4120	3.834443	3.369832
0.4150	3.909621	3.368829
0.4180	3.985858	3.370032
0.4210	4.065512	3.372493
0.4240	4.150289	3.374468
0.4270	4.241088	3.373756
0.4300	4.337968	3.368009
0.4330	4.440208	3.355001
0.4360	4.546426	3.332843
0.4390	4.654742	3.300136
0.4420	4.762955	3.256074
0.4450	4.868741	3.200484
0.4480	4.969841	3.133805
0.4510	5.064227	3.057025
0.4540	5.150233	2.971561
0.4570	5.226636	2.879117
0.4600	5.292683	2.781543
0.4630	5.348076	2.680693
0.4660	5.392917	2.578312
0.4690	5.427631	2.475960
0.4720	5.452881	2.374962
0.4750	5.469485	2.276390
0.4780	5.478343	2.181069
0.4810	5.480379	2.089598
0.4840	5.476495	2.002376
0.4870	5.467542	1.919638
0.4900	5.454300	1.841487
0.4930	5.437472	1.767925
0.4960	5.417677	1.698876
0.4990	5.395454	1.634212
0.5020	5.371266	1.573770
0.5050	5.345509	1.517365
0.5080	5.318513	1.464800
0.5110	5.290559	1.415880
0.5140	5.261875	1.370409
0.5170	5.232650	1.328205
0.5200	5.203040	1.289095
0.5230	5.173169	1.252921
0.5260	5.143136	1.219541
0.5290	5.113021	1.188830
0.5320	5.082887	1.160683
0.5350	5.052782	1.135010
0.5380	5.022747	1.111746
0.5410	4.992815	1.090842
0.5440	4.963015	1.072273
0.5470	4.933380	1.056036
0.5500	4.903943	1.042152
0.5530	4.874749	1.030667
0.5560	4.845858	1.021654
0.5590	4.817353	1.015211
0.5620	4.789347	1.011466
0.5650	4.761996	1.010574
0.5680	4.735516	1.012710
0.5710	4.710195	1.018068
0.5740	4.686416	1.026844
0.5770	4.664681	1.039213
0.5800	4.645632	1.055296
0.5830	4.630068	1.075107
0.5860	4.618948	1.098479
0.5890	4.613369	1.124973
0.5920	4.614495	1.153771
0.5950	4.623426	1.183579
0.5980	4.640990	1.212573
0.6010	4.667478	1.238450
0.6040	4.702373	1.258619
0.6070	4.744170	1.270560
0.6100	4.790391	1.272292
0.6130	4.837862	1.262812
0.6160	4.883208	1.242350
0.6190	4.923419	1.212324
0.6220	4.956290	1.175021
0.6250	4.980622	1.133134
0.6280	4.996168	1.089325
0.6310	5.003405	1.045924
0.6340	5.003262	1.004814
0.6370	4.996886	0.967449
0.6400	4.985489	0.934980
0.6430	4.970305	0.908411
0.6460	4.952676	0.888791
0.6490	4.934305	0.877365
0.6520	4.917799	0.875631
0.6550	4.907707	0.884932
0.6580	4.912133	0.904537
0.6610	4.943313	0.924998
0.6640	5.001322	0.909928
0.6670	5.010093	0.897442
0.6700	5.078479	0.878522
0.6730	5.133325	0.809091
0.6760	5.150408	0.722137
0.6790	5.137052	0.642887
0.6820	5.107601	0.579481
0.6850	5.072064	0.530939
0.6880	5.035606	0.493916
0.6910	5.000483	0.465289
0.6940	4.967517	0.442704
0.6970	4.936884	0.424499
0.7000	4.908491	0.409518
0.7030	4.882146	0.396959
0.7060	4.857639	0.386254
0.7090	4.834765	0.376996
0.7120	4.813342	0.368887
0.7150	4.793208	0.361707
0.7180	4.774226	0.355287
0.7210	4.756275	0.349500
0.7240	4.739253	0.344244
0.7270	4.723071	0.339439
0.7300	4.707651	0.335023
0.7330	4.692928	0.330942
0.7360	4.678842	0.327155
0.7390	4.665342	0.323626
0.7420	4.652383	0.320326
0.7450	4.639925	0.317228
0.7480	4.627931	0.314313
0.7510	4.616370	0.311561
0.7540	4.605213	0.308958
0.7570	4.594434	0.306488
0.7600	4.584010	0.304142
0.7630	4.573919	0.301907
0.7660	4.564142	0.299775
0.7690	4.554661	0.297737
0.7720	4.545461	0.295786
0.7750	4.536525	0.293917
0.7780	4.527841	0.292122
0.7810	4.519395	0.290396
0.7840	4.511177	0.288736
0.7870	4.503174	0.287136
0.7900	4.495378	0.285593
0.7930	4.487777	0.284103
0.7960	4.480365	0.282663
0.7990	4.473132	0.281271
0.8020	4.466072	0.279922
0.8050	4.459175	0.278616
0.8080	4.452437	0.277349
0.8110	4.445850	0.276119
0.8140	4.439409	0.274925
0.8170	4.433107	0.273765
0.8200	4.426941	0.272637
0.8230	4.420904	0.271539
0.8260	4.414991	0.270471
0.8290	4.409199	0.269430
0.8320	4.403523	0.268416
0.8350	4.397959	0.267427
0.8380	4.392503	0.266462
0.8410	4.387151	0.265521
0.8440	4.381900	0.264601
0.8470	4.376748	0.263704
0.8500	4.371689	0.262826
0.8530	4.366722	0.261969
0.8560	4.361844	0.261131
0.8590	4.357051	0.260310
0.8620	4.352341	0.259508
0.8650	4.347713	0.258722
0.8680	4.343162	0.257953
0.8710	4.338687	0.257200
0.8740	4.334286	0.256462
0.8770	4.329957	0.255739
0.8800	4.325697	0.255030
0.8830	4.321506	0.254335
0.8860	4.317379	0.253654
0.8890	4.313317	0.252985
0.8920	4.309317	0.252329
0.8950	4.305377	0.251686
0.8980	4.301496	0.251054
0.9010	4.297672	0.250434
0.9040	4.293905	0.249825
0.9070	4.290192	0.249227
0.9100	4.286531	0.248640
0.9130	4.282923	0.248063
0.9160	4.279365	0.247496
0.9190	4.275856	0.246939
0.9220	4.272395	0.246392
0.9250	4.268981	0.245854
0.9280	4.265612	0.245325
0.9310	4.262288	0.244804
0.9340	4.259007	0.244293
0.9370	4.255769	0.243790
0.9400	4.252573	0.243295
0.9430	4.249416	0.242808
0.9460	4.246300	0.242330
0.9490	4.243222	0.241858
0.9520	4.240182	0.241395
0.9550	4.237179	0.240939
0.9580	4.234212	0.240490
0.9610	4.231280	0.240048
0.9640	4.228383	0.239613
0.9670	4.225520	0.239185
0.9700	4.222690	0.238763
0.9730	4.219892	0.238348
0.9760	4.217126	0.237939
0.9790	4.214391	0.237537
0.9820	4.211686	0.237141
0.9850	4.209011	0.236750
0.9880	4.206366	0.236366
0.9910	4.203748	0.235988
0.9940	4.201159	0.235615
0.9970	4.198597	0.235247
1.0000	4.196062	0.234886
1.0075	4.189837	0.234005
1.0150	4.183770	0.233156
1.0225	4.177851	0.232338
1.0300	4.172074	0.231549
1.0375	4.166432	0.230789
1.0450	4.160919	0.230057
1.0525	4.155528	0.229350
1.0600	4.150256	0.228669
1.0675	4.145095	0.228013
1.0750	4.140041	0.227380
1.0825	4.135091	0.226770
1.0900	4.130239	0.226181
1.0975	4.125480	0.225614
1.1050	4.120811	0.225068
1.1125	4.116229	0.224541
1.1200	4.111730	0.224034
1.1275	4.107309	0.223545
1.1350	4.102965	0.223075
1.1425	4.098694	0.222622
1.1500	4.094493	0.222186
1.1575	4.090359	0.221766
1.1650	4.086290	0.221363
1.1725	4.082283	0.220976
1.1800	4.078336	0.220604
1.1875	4.074446	0.220246
1.1950	4.070611	0.219903
1.2025	4.066829	0.219574
1.2100	4.063098	0.219259
1.2175	4.059416	0.218957
1.2250	4.055782	0.218668
1.2325	4.052192	0.218392
1.2400	4.048647	0.218129
1.2475	4.045144	0.217877
1.2550	4.041681	0.217637
1.2625	4.038257	0.217409
1.2700	4.034871	0.217192
1.2775	4.031520	0.216987
1.2850	4.028205	0.216792
1.2925	4.024923	0.216607
1.3000	4.021674	0.216433
1.3075	4.018456	0.216269
1.3150	4.015267	0.216115
1.3225	4.012108	0.215971
1.3300	4.008976	0.215836
1.3375	4.005871	0.215710
1.3450	4.002792	0.215594
1.3525	3.999738	0.215487
1.3600	3.996708	0.215388
1.3675	3.993701	0.215298
1.3750	3.990715	0.215216
1.3825	3.987751	0.215143
1.3900	3.984808	0.215077
1.3975	3.981885	0.215020
1.4050	3.978980	0.214971
1.4125	3.976094	0.214929
1.4200	3.973225	0.214895
1.4275	3.970374	0.214868
1.4350	3.967538	0.214849
1.4425	3.964718	0.214836
1.4500	3.961913	0.214831
1.4575	3.959123	0.214833
1.4650	3.956346	0.214841
1.4725	3.953583	0.214857
1.4800	3.950832	0.214878
1.4875	3.948094	0.214907
1.4950	3.945367	0.214942
1.5025	3.942652	0.214983
1.5100	3.939947	0.215030
1.5175	3.937252	0.215083
1.5250	3.934567	0.215143
1.5325	3.931891	0.215208
1.5400	3.929225	0.215279
1.5475	3.926567	0.215356
1.5550	3.923917	0.215438
1.5625	3.921274	0.215527
1.5700	3.918639	0.215620
1.5775	3.916011	0.215719
1.5850	3.913390	0.215824
1.5925	3.910774	0.215934
1.6000	3.908165	0.216049
1.6075	3.905561	0.216169
1.6150	3.902963	0.216294
1.6225	3.900369	0.216424
1.6300	3.897780	0.216560
1.6375	3.895195	0.216700
1.6450	3.892614	0.216845
1.6525	3.890037	0.216995
1.6600	3.887464	0.217149
1.6675	3.884893	0.217308
1.6750	3.882326	0.217472
1.6825	3.879761	0.217640
1.6900	3.877198	0.217813
