Material: inorganic / MoS2 / Song-3L
Optical constants. B. Song, H. Gu, M. Fang, X. Chen, H. Jiang, R. Wang, T. Zhai, Y.-T. Ho, S. Liu. Layer-dependent dielectric function of wafer-scale 2D MoS2, Adv. Optical Mater. 7, 1801250 (2019) (Numerical data kindly provided by Baokun Song)
Comments: 3-layer, 3L
Specs: {"n_absolute": true, "wavelength_vacuum": true, "film_thickness": "3L", "substrate": "c-sapphire"}
wavelength (um)	n	k
0.1930	1.528142	1.649165
0.1960	1.554660	1.692248
0.1990	1.583440	1.727348
0.2020	1.613021	1.755923
0.2050	1.642350	1.779222
0.2080	1.670679	1.798355
0.2110	1.697503	1.814325
0.2140	1.722520	1.828051
0.2170	1.745603	1.840371
0.2200	1.766781	1.852039
0.2230	1.786214	1.863722
0.2260	1.804177	1.875987
0.2290	1.821040	1.889301
0.2320	1.837246	1.904016
0.2350	1.853295	1.920368
0.2380	1.869720	1.938472
0.2410	1.887066	1.958319
0.2440	1.905872	1.979778
0.2470	1.926644	2.002596
0.2500	1.949836	2.026408
0.2530	1.975827	2.050743
0.2560	2.004901	2.075040
0.2590	2.037225	2.098666
0.2620	2.072837	2.120936
0.2650	2.111625	2.141144
0.2680	2.153326	2.158591
0.2710	2.197522	2.172619
0.2740	2.243645	2.182648
0.2770	2.290997	2.188215
0.2800	2.338773	2.188997
0.2830	2.386097	2.184847
0.2860	2.432065	2.175801
0.2890	2.475789	2.162084
0.2920	2.516443	2.144101
0.2950	2.553301	2.122413
0.2980	2.585771	2.097706
0.3010	2.613410	2.070750
0.3040	2.635934	2.042366
0.3070	2.653213	2.013382
0.3100	2.665258	1.984607
0.3130	2.672201	1.956804
0.3160	2.674276	1.930678
0.3190	2.671794	1.906865
0.3220	2.665125	1.885931
0.3250	2.654680	1.868378
0.3280	2.640903	1.854648
0.3310	2.624257	1.845133
0.3340	2.605227	1.840183
0.3370	2.584315	1.840112
0.3400	2.562048	1.845208
0.3430	2.538982	1.855734
0.3460	2.515712	1.871931
0.3490	2.492883	1.894013
0.3520	2.471203	1.922162
0.3550	2.451454	1.956518
0.3580	2.434512	1.997157
0.3610	2.421355	2.044071
0.3640	2.413083	2.097128
0.3670	2.410927	2.156019
0.3700	2.416244	2.220181
0.3730	2.430494	2.288691
0.3760	2.455154	2.360126
0.3790	2.491525	2.432413
0.3820	2.540395	2.502741
0.3850	2.601525	2.567667
0.3880	2.673114	2.623641
0.3910	2.751619	2.668008
0.3940	2.832394	2.700164
0.3970	2.911206	2.722070
0.4000	2.985820	2.737476
0.4030	3.056576	2.750237
0.4060	3.125672	2.762843
0.4090	3.195879	2.775911
0.4120	3.269507	2.788522
0.4150	3.347915	2.798883
0.4180	3.431466	2.804915
0.4210	3.519675	2.804654
0.4240	3.611428	2.796476
0.4270	3.705183	2.779216
0.4300	3.799157	2.752208
0.4330	3.891480	2.715292
0.4360	3.980338	2.668786
0.4390	4.064086	2.613420
0.4420	4.141343	2.550260
0.4450	4.211048	2.480607
0.4480	4.272490	2.405894
0.4510	4.325299	2.327588
0.4540	4.369423	2.247105
0.4570	4.405071	2.165742
0.4600	4.432659	2.084639
0.4630	4.452750	2.004752
0.4660	4.465998	1.926853
0.4690	4.473103	1.851534
0.4720	4.474766	1.779227
0.4750	4.471671	1.710224
0.4780	4.464459	1.644700
0.4810	4.453720	1.582740
0.4840	4.439982	1.524354
0.4870	4.423717	1.469497
0.4900	4.405338	1.418088
0.4930	4.385201	1.370016
0.4960	4.363613	1.325156
0.4990	4.340836	1.283376
0.5020	4.317090	1.244540
0.5050	4.292560	1.208514
0.5080	4.267401	1.175173
0.5110	4.241743	1.144398
0.5140	4.215690	1.116083
0.5170	4.189332	1.090133
0.5200	4.162742	1.066466
0.5230	4.135981	1.045016
0.5260	4.109101	1.025731
0.5290	4.082149	1.008573
0.5320	4.055169	0.993523
0.5350	4.028205	0.980577
0.5380	4.001306	0.969748
0.5410	3.974526	0.961067
0.5440	3.947932	0.954583
0.5470	3.921611	0.950361
0.5500	3.895669	0.948481
0.5530	3.870245	0.949037
0.5560	3.845513	0.952132
0.5590	3.821696	0.957872
0.5620	3.799071	0.966351
0.5650	3.777978	0.977643
0.5680	3.758824	0.991776
0.5710	3.742080	1.008706
0.5740	3.728264	1.028282
0.5770	3.717895	1.050213
0.5800	3.711391	1.074041
0.5830	3.708755	1.099178
0.5860	3.707710	1.127723
0.5890	3.719116	1.160865
0.5920	3.739804	1.189407
0.5950	3.767493	1.212297
0.5980	3.800503	1.228317
0.6010	3.836963	1.236523
0.6040	3.874804	1.236456
0.6070	3.911917	1.228249
0.6100	3.946368	1.212625
0.6130	3.976583	1.190788
0.6160	4.001474	1.164246
0.6190	4.020459	1.134613
0.6220	4.033405	1.103443
0.6250	4.040527	1.072117
0.6280	4.042263	1.041798
0.6310	4.039157	1.013441
0.6340	4.031782	0.987848
0.6370	4.020684	0.965767
0.6400	4.006384	0.948019
0.6430	3.989454	0.935682
0.6460	3.970748	0.930347
0.6490	3.952020	0.934408
0.6520	3.937388	0.951070
0.6550	3.936225	0.982488
0.6580	3.965005	1.021621
0.6610	4.033204	1.038699
0.6640	4.109506	1.000846
0.6670	4.147440	0.926297
0.6700	4.145472	0.855457
0.6730	4.124577	0.802809
0.6760	4.098543	0.765867
0.6790	4.072833	0.739526
0.6820	4.049067	0.720002
0.6850	4.027485	0.704923
0.6880	4.007906	0.692842
0.6910	3.990053	0.682867
0.6940	3.973665	0.674425
0.6970	3.958517	0.667144
0.7000	3.944426	0.660765
0.7030	3.931245	0.655109
0.7060	3.918855	0.650045
0.7090	3.907159	0.645474
0.7120	3.896076	0.641322
0.7150	3.885543	0.637530
0.7180	3.875502	0.634051
0.7210	3.865909	0.630847
0.7240	3.856722	0.627886
0.7270	3.847908	0.625142
0.7300	3.839437	0.622594
0.7330	3.831284	0.620221
0.7360	3.823424	0.618008
0.7390	3.815839	0.615940
0.7420	3.808508	0.614005
0.7450	3.801418	0.612192
0.7480	3.794552	0.610492
0.7510	3.787897	0.608894
0.7540	3.781441	0.607393
0.7570	3.775174	0.605980
0.7600	3.769084	0.604650
0.7630	3.763163	0.603397
0.7660	3.757402	0.602215
0.7690	3.751793	0.601101
0.7720	3.746329	0.600050
0.7750	3.741003	0.599059
0.7780	3.735808	0.598122
0.7810	3.730738	0.597239
0.7840	3.725788	0.596404
0.7870	3.720953	0.595617
0.7900	3.716228	0.594873
0.7930	3.711607	0.594172
0.7960	3.707088	0.593510
0.7990	3.702665	0.592886
0.8020	3.698335	0.592297
0.8050	3.694094	0.591743
0.8080	3.689939	0.591221
0.8110	3.685866	0.590730
0.8140	3.681873	0.590269
0.8170	3.677957	0.589836
0.8200	3.674114	0.589431
0.8230	3.670342	0.589051
0.8260	3.666639	0.588696
0.8290	3.663002	0.588365
0.8320	3.659429	0.588057
0.8350	3.655917	0.587771
0.8380	3.652465	0.587506
0.8410	3.649071	0.587262
0.8440	3.645733	0.587037
0.8470	3.642448	0.586832
0.8500	3.639216	0.586644
0.8530	3.636034	0.586475
0.8560	3.632901	0.586323
0.8590	3.629816	0.586187
0.8620	3.626777	0.586067
0.8650	3.623782	0.585963
0.8680	3.620831	0.585874
0.8710	3.617921	0.585799
0.8740	3.615052	0.585739
0.8770	3.612223	0.585692
0.8800	3.609432	0.585659
0.8830	3.606678	0.585639
0.8860	3.603961	0.585631
0.8890	3.601278	0.585636
0.8920	3.598630	0.585653
0.8950	3.596015	0.585681
0.8980	3.593432	0.585721
0.9010	3.590880	0.585772
0.9040	3.588360	0.585834
0.9070	3.585868	0.585906
0.9100	3.583406	0.585989
0.9130	3.580972	0.586081
0.9160	3.578565	0.586184
0.9190	3.576185	0.586296
0.9220	3.573831	0.586418
0.9250	3.571502	0.586549
0.9280	3.569198	0.586689
0.9310	3.566918	0.586837
0.9340	3.564661	0.586995
0.9370	3.562427	0.587161
0.9400	3.560215	0.587335
0.9430	3.558025	0.587517
0.9460	3.555856	0.587708
0.9490	3.553707	0.587906
0.9520	3.551579	0.588112
0.9550	3.549470	0.588326
0.9580	3.547380	0.588547
0.9610	3.545309	0.588775
0.9640	3.543256	0.589010
0.9670	3.541221	0.589253
0.9700	3.539203	0.589502
0.9730	3.537202	0.589759
0.9760	3.535217	0.590022
0.9790	3.533249	0.590291
0.9820	3.531296	0.590568
0.9850	3.529359	0.590850
0.9880	3.527436	0.591139
0.9910	3.525528	0.591434
0.9940	3.523635	0.591735
0.9970	3.521755	0.592042
1.0000	3.519889	0.592356
1.0075	3.515282	0.593164
1.0150	3.510753	0.594008
1.0225	3.506298	0.594886
1.0300	3.501913	0.595797
1.0375	3.497593	0.596740
1.0450	3.493336	0.597714
1.0525	3.489138	0.598719
1.0600	3.484994	0.599753
1.0675	3.480904	0.600815
1.0750	3.476862	0.601906
1.0825	3.472867	0.603024
1.0900	3.468917	0.604168
1.0975	3.465008	0.605338
1.1050	3.461138	0.606533
1.1125	3.457304	0.607753
1.1200	3.453506	0.608997
1.1275	3.449740	0.610265
1.1350	3.446006	0.611556
1.1425	3.442300	0.612869
1.1500	3.438622	0.614205
1.1575	3.434970	0.615563
1.1650	3.431341	0.616942
1.1725	3.427735	0.618343
1.1800	3.424151	0.619764
1.1875	3.420586	0.621205
1.1950	3.417040	0.622667
1.2025	3.413511	0.624148
1.2100	3.409997	0.625649
1.2175	3.406499	0.627169
1.2250	3.403015	0.628708
1.2325	3.399544	0.630265
1.2400	3.396084	0.631841
1.2475	3.392635	0.633435
1.2550	3.389195	0.635047
1.2625	3.385765	0.636677
1.2700	3.382343	0.638324
1.2775	3.378928	0.639988
1.2850	3.375520	0.641670
1.2925	3.372118	0.643369
1.3000	3.368720	0.645084
1.3075	3.365327	0.646816
1.3150	3.361937	0.648564
1.3225	3.358551	0.650329
1.3300	3.355166	0.652109
1.3375	3.351784	0.653906
1.3450	3.348403	0.655719
1.3525	3.345022	0.657547
1.3600	3.341641	0.659391
1.3675	3.338260	0.661250
1.3750	3.334878	0.663125
1.3825	3.331495	0.665015
1.3900	3.328110	0.666921
1.3975	3.324722	0.668841
1.4050	3.321332	0.670777
1.4125	3.317938	0.672727
1.4200	3.314540	0.674692
1.4275	3.311139	0.676672
1.4350	3.307733	0.678667
1.4425	3.304322	0.680676
1.4500	3.300906	0.682700
1.4575	3.297485	0.684739
1.4650	3.294058	0.686792
1.4725	3.290624	0.688859
1.4800	3.287184	0.690941
1.4875	3.283737	0.693036
1.4950	3.280284	0.695147
1.5025	3.276822	0.697271
1.5100	3.273354	0.699410
1.5175	3.269877	0.701563
1.5250	3.266392	0.703729
1.5325	3.262898	0.705910
1.5400	3.259396	0.708106
1.5475	3.255884	0.710315
1.5550	3.252364	0.712538
1.5625	3.248834	0.714775
1.5700	3.245294	0.717026
1.5775	3.241745	0.719291
1.5850	3.238185	0.721571
1.5925	3.234616	0.723864
1.6000	3.231035	0.726171
1.6075	3.227444	0.728492
1.6150	3.223842	0.730827
1.6225	3.220229	0.733176
1.6300	3.216605	0.735540
1.6375	3.212970	0.737917
1.6450	3.209322	0.740308
1.6525	3.205663	0.742713
1.6600	3.201993	0.745132
1.6675	3.198310	0.747565
1.6750	3.194614	0.750013
1.6825	3.190907	0.752474
1.6900	3.187187	0.754950
