Material: inorganic / MoS2 / Song-13L
Optical constants. B. Song, H. Gu, M. Fang, X. Chen, H. Jiang, R. Wang, T. Zhai, Y.-T. Ho, S. Liu. Layer-dependent dielectric function of wafer-scale 2D MoS2, Adv. Optical Mater. 7, 1801250 (2019) (Numerical data kindly provided by Baokun Song)
Comments: 13-layer, 13L
Specs: {"n_absolute": true, "wavelength_vacuum": true, "film_thickness": "13L", "substrate": "c-sapphire"}
wavelength (um)	n	k
0.1930	1.447025	2.179305
0.1960	1.500953	2.244093
0.1990	1.561332	2.288653
0.2020	1.623398	2.318771
0.2050	1.684209	2.337907
0.2080	1.741760	2.348645
0.2110	1.794703	2.353226
0.2140	1.842248	2.353729
0.2170	1.884120	2.352097
0.2200	1.920506	2.350084
0.2230	1.951989	2.349203
0.2260	1.979459	2.350662
0.2290	2.004023	2.355335
0.2320	2.026907	2.363746
0.2350	2.049369	2.376075
0.2380	2.072623	2.392187
0.2410	2.097777	2.411664
0.2440	2.125777	2.433851
0.2470	2.157376	2.457909
0.2500	2.193106	2.482858
0.2530	2.233261	2.507632
0.2560	2.277891	2.531131
0.2590	2.326802	2.552263
0.2620	2.379568	2.570003
0.2650	2.435540	2.583430
0.2680	2.493880	2.591778
0.2710	2.553591	2.594472
0.2740	2.613569	2.591164
0.2770	2.672652	2.581748
0.2800	2.729676	2.566372
0.2830	2.783545	2.545425
0.2860	2.833272	2.519509
0.2890	2.878031	2.489408
0.2920	2.917183	2.456032
0.2950	2.950293	2.420369
0.2980	2.977124	2.383434
0.3010	2.997630	2.346228
0.3040	3.011927	2.309698
0.3070	3.020270	2.274716
0.3100	3.023019	2.242064
0.3130	3.020614	2.212431
0.3160	3.013551	2.186409
0.3190	3.002360	2.164506
0.3220	2.987593	2.147154
0.3250	2.969814	2.134716
0.3280	2.949595	2.127501
0.3310	2.927513	2.125773
0.3340	2.904157	2.129756
0.3370	2.880127	2.139644
0.3400	2.856046	2.155598
0.3430	2.832564	2.177751
0.3460	2.810368	2.206202
0.3490	2.790196	2.241009
0.3520	2.772840	2.282185
0.3550	2.759163	2.329675
0.3580	2.750108	2.383339
0.3610	2.746711	2.442920
0.3640	2.750104	2.508000
0.3670	2.761519	2.577933
0.3700	2.782257	2.651760
0.3730	2.813622	2.728096
0.3760	2.856773	2.805006
0.3790	2.912458	2.879924
0.3820	2.980628	2.949702
0.3850	3.059979	3.010921
0.3880	3.147660	3.060591
0.3910	3.239460	3.097103
0.3940	3.330719	3.121026
0.3970	3.417714	3.135131
0.4000	3.498783	3.143450
0.4030	3.574547	3.149850
0.4060	3.647218	3.156923
0.4090	3.719564	3.165618
0.4120	3.794068	3.175486
0.4150	3.872486	3.185183
0.4180	3.955753	3.192952
0.4210	4.044057	3.196970
0.4240	4.136991	3.195561
0.4270	4.233702	3.187312
0.4300	4.333019	3.171132
0.4330	4.433568	3.146277
0.4360	4.533868	3.112356
0.4390	4.632410	3.069322
0.4420	4.727738	3.017450
0.4450	4.818516	2.957303
0.4480	4.903580	2.889684
0.4510	4.981977	2.815583
0.4540	5.052995	2.736112
0.4570	5.116163	2.652447
0.4600	5.171250	2.565769
0.4630	5.218236	2.477215
0.4660	5.257291	2.387839
0.4690	5.288732	2.298586
0.4720	5.312988	2.210275
0.4750	5.330570	2.123592
0.4780	5.342032	2.039094
0.4810	5.347950	1.957216
0.4840	5.348897	1.878281
0.4870	5.345427	1.802516
0.4900	5.338065	1.730066
0.4930	5.327299	1.661008
0.4960	5.313574	1.595363
0.4990	5.297293	1.533112
0.5020	5.278815	1.474202
0.5050	5.258458	1.418558
0.5080	5.236500	1.366087
0.5110	5.213181	1.316690
0.5140	5.188712	1.270263
0.5170	5.163270	1.226700
0.5200	5.137006	1.185902
0.5230	5.110049	1.147774
0.5260	5.082506	1.112230
0.5290	5.054467	1.079196
0.5320	5.026006	1.048609
0.5350	4.997186	1.020422
0.5380	4.968060	0.994602
0.5410	4.938673	0.971135
0.5440	4.909070	0.950027
0.5470	4.879293	0.931304
0.5500	4.849390	0.915015
0.5530	4.819417	0.901238
0.5560	4.789446	0.890074
0.5590	4.759576	0.881657
0.5620	4.729937	0.876151
0.5650	4.700708	0.873750
0.5680	4.672134	0.874672
0.5710	4.644544	0.879160
0.5740	4.618377	0.887454
0.5770	4.594208	0.899777
0.5800	4.572777	0.916285
0.5830	4.555010	0.937006
0.5860	4.542016	0.961754
0.5890	4.535062	0.990013
0.5920	4.535477	1.020816
0.5950	4.544487	1.052633
0.5980	4.562956	1.083327
0.6010	4.591074	1.110239
0.6040	4.628054	1.130459
0.6070	4.671965	1.141276
0.6100	4.719833	1.140722
0.6130	4.768029	1.128034
0.6160	4.812879	1.103853
0.6190	4.851274	1.070068
0.6220	4.881104	1.029399
0.6250	4.901375	0.984859
0.6280	4.912080	0.939321
0.6310	4.913921	0.895250
0.6340	4.908024	0.854646
0.6370	4.895723	0.819115
0.6400	4.878479	0.790026
0.6430	4.857936	0.768681
0.6460	4.836175	0.756435
0.6490	4.816190	0.754613
0.6520	4.802558	0.763925
0.6550	4.801899	0.782840
0.6580	4.821592	0.804712
0.6610	4.864479	0.815922
0.6640	4.921452	0.801173
0.6670	4.973007	0.756176
0.6700	5.003541	0.692086
0.6730	5.010640	0.624580
0.6760	5.000479	0.563540
0.6790	4.980345	0.512142
0.6820	4.955470	0.469955
0.6850	4.928918	0.435389
0.6880	4.902300	0.406791
0.6910	4.876387	0.382793
0.6940	4.851506	0.362345
0.6970	4.827758	0.344667
0.7000	4.805135	0.329179
0.7030	4.783575	0.315452
0.7060	4.762997	0.303163
0.7090	4.743315	0.292065
0.7120	4.724444	0.281970
0.7150	4.706304	0.272729
0.7180	4.688816	0.264225
0.7210	4.671904	0.256365
0.7240	4.655488	0.249072
0.7270	4.639473	0.242285
0.7300	4.623713	0.235957
0.7330	4.607656	0.230069
0.7360	4.592239	0.226483
0.7390	4.578214	0.223099
0.7420	4.564968	0.219914
0.7450	4.552348	0.216911
0.7480	4.540267	0.214076
0.7510	4.528668	0.211394
0.7540	4.517504	0.208852
0.7570	4.506740	0.206437
0.7600	4.496344	0.204140
0.7630	4.486292	0.201951
0.7660	4.476560	0.199861
0.7690	4.467129	0.197863
0.7720	4.457981	0.195950
0.7750	4.449100	0.194117
0.7780	4.440470	0.192357
0.7810	4.432079	0.190665
0.7840	4.423915	0.189038
0.7870	4.415966	0.187470
0.7900	4.408222	0.185958
0.7930	4.400673	0.184499
0.7960	4.393312	0.183089
0.7990	4.386128	0.181726
0.8020	4.379116	0.180407
0.8050	4.372266	0.179128
0.8080	4.365574	0.177889
0.8110	4.359032	0.176687
0.8140	4.352634	0.175520
0.8170	4.346375	0.174386
0.8200	4.340250	0.173284
0.8230	4.334253	0.172211
0.8260	4.328380	0.171167
0.8290	4.322626	0.170151
0.8320	4.316988	0.169160
0.8350	4.311460	0.168194
0.8380	4.306041	0.167251
0.8410	4.300725	0.166332
0.8440	4.295508	0.165433
0.8470	4.290390	0.164556
0.8500	4.285365	0.163698
0.8530	4.280431	0.162860
0.8560	4.275585	0.162039
0.8590	4.270824	0.161236
0.8620	4.266147	0.160451
0.8650	4.261549	0.159681
0.8680	4.257030	0.158927
0.8710	4.252586	0.158188
0.8740	4.248216	0.157464
0.8770	4.243917	0.156754
0.8800	4.239687	0.156057
0.8830	4.235525	0.155373
0.8860	4.231428	0.154702
0.8890	4.227395	0.154043
0.8920	4.223423	0.153396
0.8950	4.219513	0.152761
0.8980	4.215661	0.152136
0.9010	4.211866	0.151523
0.9040	4.208128	0.150919
0.9070	4.204443	0.150326
0.9100	4.200812	0.149743
0.9130	4.197232	0.149169
0.9160	4.193703	0.148605
0.9190	4.190223	0.148049
0.9220	4.186790	0.147503
0.9250	4.183405	0.146964
0.9280	4.180065	0.146434
0.9310	4.176770	0.145912
0.9340	4.173518	0.145398
0.9370	4.170309	0.144892
0.9400	4.167141	0.144393
0.9430	4.164014	0.143901
0.9460	4.160927	0.143417
0.9490	4.157878	0.142939
0.9520	4.154867	0.142468
0.9550	4.151894	0.142004
0.9580	4.148956	0.141546
0.9610	4.146055	0.141094
0.9640	4.143188	0.140648
0.9670	4.140354	0.140209
0.9700	4.137554	0.139775
0.9730	4.134787	0.139347
0.9760	4.132051	0.138925
0.9790	4.129347	0.138508
0.9820	4.126673	0.138097
0.9850	4.124029	0.137690
0.9880	4.121415	0.137289
0.9910	4.118829	0.136893
0.9940	4.116271	0.136502
0.9970	4.113741	0.136116
1.0000	4.111238	0.135734
1.0075	4.105094	0.134801
1.0150	4.099109	0.133895
1.0225	4.093273	0.133016
1.0300	4.087581	0.132161
1.0375	4.082025	0.131331
1.0450	4.076599	0.130524
1.0525	4.071298	0.129739
1.0600	4.066115	0.128976
1.0675	4.061047	0.128232
1.0750	4.056087	0.127509
1.0825	4.051231	0.126804
1.0900	4.046475	0.126117
1.0975	4.041815	0.125448
1.1050	4.037246	0.124795
1.1125	4.032765	0.124159
1.1200	4.028368	0.123539
1.1275	4.024053	0.122933
1.1350	4.019815	0.122343
1.1425	4.015651	0.121766
1.1500	4.011560	0.121203
1.1575	4.007537	0.120654
1.1650	4.003581	0.120117
1.1725	3.999688	0.119593
1.1800	3.995857	0.119081
1.1875	3.992084	0.118581
1.1950	3.988369	0.118092
1.2025	3.984708	0.117614
1.2100	3.981100	0.117148
1.2175	3.977542	0.116691
1.2250	3.974034	0.116245
1.2325	3.970572	0.115809
1.2400	3.967157	0.115382
1.2475	3.963784	0.114965
1.2550	3.960454	0.114557
1.2625	3.957165	0.114157
1.2700	3.953915	0.113767
1.2775	3.950703	0.113385
1.2850	3.947527	0.113011
1.2925	3.944387	0.112646
1.3000	3.941281	0.112288
1.3075	3.938207	0.111938
1.3150	3.935165	0.111596
1.3225	3.932154	0.111261
1.3300	3.929173	0.110933
1.3375	3.926219	0.110612
1.3450	3.923294	0.110298
1.3525	3.920394	0.109991
1.3600	3.917521	0.109690
1.3675	3.914672	0.109396
1.3750	3.911847	0.109108
1.3825	3.909045	0.108826
1.3900	3.906265	0.108551
1.3975	3.903507	0.108281
1.4050	3.900770	0.108017
1.4125	3.898052	0.107758
1.4200	3.895354	0.107506
1.4275	3.892674	0.107258
1.4350	3.890013	0.107016
1.4425	3.887369	0.106780
1.4500	3.884741	0.106548
1.4575	3.882130	0.106321
1.4650	3.879534	0.106100
1.4725	3.876953	0.105883
1.4800	3.874387	0.105671
1.4875	3.871834	0.105464
1.4950	3.869295	0.105261
1.5025	3.866769	0.105063
1.5100	3.864255	0.104869
1.5175	3.861753	0.104680
1.5250	3.859263	0.104495
1.5325	3.856784	0.104314
1.5400	3.854315	0.104138
1.5475	3.851856	0.103965
1.5550	3.849408	0.103796
1.5625	3.846969	0.103632
1.5700	3.844539	0.103471
1.5775	3.842117	0.103314
1.5850	3.839704	0.103161
1.5925	3.837299	0.103011
1.6000	3.834902	0.102866
1.6075	3.832511	0.102723
1.6150	3.830128	0.102584
1.6225	3.827751	0.102449
1.6300	3.825381	0.102317
1.6375	3.823017	0.102189
1.6450	3.820658	0.102063
1.6525	3.818305	0.101941
1.6600	3.815958	0.101823
1.6675	3.813615	0.101707
1.6750	3.811276	0.101595
1.6825	3.808943	0.101485
1.6900	3.806613	0.101379
