Material: inorganic / MoS2 / Song-1L
Optical constants. B. Song, H. Gu, M. Fang, X. Chen, H. Jiang, R. Wang, T. Zhai, Y.-T. Ho, S. Liu. Layer-dependent dielectric function of wafer-scale 2D MoS2, Adv. Optical Mater. 7, 1801250 (2019) (Numerical data kindly provided by Baokun Song)
Comments: Monolayer (1-layer, 1L)
Specs: {"n_absolute": true, "wavelength_vacuum": true, "film_thickness": "1L", "substrate": "c-sapphire"}
wavelength (um)	n	k
0.1930	0.674401	1.664758
0.1960	0.709026	1.734080
0.1990	0.746729	1.801976
0.2020	0.793420	1.863861
0.2050	0.832654	1.929948
0.2080	0.880053	1.991402
0.2110	0.930706	2.049796
0.2140	0.984395	2.104874
0.2170	1.040859	2.156221
0.2200	1.099733	2.203393
0.2230	1.160526	2.245964
0.2260	1.222610	2.283569
0.2290	1.285223	2.315950
0.2320	1.347488	2.343000
0.2350	1.408445	2.364813
0.2380	1.467099	2.381720
0.2410	1.522489	2.394313
0.2440	1.573758	2.403455
0.2470	1.620236	2.410261
0.2500	1.661511	2.416062
0.2530	1.697499	2.422344
0.2560	1.728494	2.430681
0.2590	1.755211	2.442642
0.2620	1.778809	2.459700
0.2650	1.800904	2.483122
0.2680	1.823568	2.513848
0.2710	1.849303	2.552346
0.2740	1.880989	2.598450
0.2770	1.921779	2.651166
0.2800	1.974919	2.708450
0.2830	2.043439	2.766987
0.2860	2.129680	2.822008
0.2890	2.234587	2.867283
0.2920	2.356811	2.895463
0.2950	2.491829	2.899041
0.2980	2.631543	2.872018
0.3010	2.764995	2.811937
0.3040	2.880448	2.721377
0.3070	2.968243	2.607865
0.3100	3.023037	2.481984
0.3130	3.044363	2.354646
0.3160	3.035550	2.234877
0.3190	3.001942	2.128859
0.3220	2.949331	2.040072
0.3250	2.883001	1.969972
0.3280	2.807356	1.918755
0.3310	2.725896	1.885955
0.3340	2.641385	1.870841
0.3370	2.556052	1.872635
0.3400	2.471786	1.890598
0.3430	2.390280	1.924042
0.3460	2.313134	1.972289
0.3490	2.241891	2.034619
0.3520	2.178043	2.110219
0.3550	2.123003	2.198173
0.3580	2.078071	2.297473
0.3610	2.044433	2.407065
0.3640	2.023188	2.525913
0.3670	2.015442	2.653040
0.3700	2.022446	2.787530
0.3730	2.045794	2.928442
0.3760	2.087670	3.074564
0.3790	2.151054	3.223866
0.3820	2.239646	3.372465
0.3850	2.356742	3.513054
0.3880	2.501747	3.633889
0.3910	2.664478	3.722130
0.3940	2.824365	3.774920
0.3970	2.964306	3.807686
0.4000	3.086201	3.842421
0.4030	3.205681	3.889430
0.4060	3.337143	3.945343
0.4090	3.487656	4.001059
0.4120	3.658339	4.047378
0.4150	3.846853	4.076770
0.4180	4.048919	4.083533
0.4210	4.259033	4.063697
0.4240	4.470910	4.015054
0.4270	4.677924	3.937248
0.4300	4.873647	3.831809
0.4330	5.052428	3.701999
0.4360	5.209905	3.552422
0.4390	5.343322	3.388480
0.4420	5.451592	3.215759
0.4450	5.535125	3.039490
0.4480	5.595493	2.864170
0.4510	5.635037	2.693359
0.4540	5.656492	2.529651
0.4570	5.662683	2.374758
0.4600	5.656318	2.229650
0.4630	5.639856	2.094720
0.4660	5.615447	1.969942
0.4690	5.584916	1.855004
0.4720	5.549780	1.749407
0.4750	5.511277	1.652553
0.4780	5.470402	1.563797
0.4810	5.427945	1.482486
0.4840	5.384523	1.407985
0.4870	5.340619	1.339693
0.4900	5.296596	1.277050
0.4930	5.252731	1.219545
0.4960	5.209226	1.166709
0.4990	5.166226	1.118122
0.5020	5.123829	1.073405
0.5050	5.082096	1.032223
0.5080	5.041060	0.994274
0.5110	5.000731	0.959294
0.5140	4.961098	0.927049
0.5170	4.922137	0.897334
0.5200	4.883812	0.869973
0.5230	4.846074	0.844811
0.5260	4.808869	0.821721
0.5290	4.772133	0.800596
0.5320	4.735795	0.781351
0.5350	4.699780	0.763924
0.5380	4.664002	0.748275
0.5410	4.628374	0.734388
0.5440	4.592799	0.722272
0.5470	4.557176	0.711965
0.5500	4.521398	0.703538
0.5530	4.485350	0.697100
0.5560	4.448917	0.692809
0.5590	4.411979	0.690876
0.5620	4.374422	0.691586
0.5650	4.336143	0.695312
0.5680	4.297065	0.702537
0.5710	4.257165	0.713889
0.5740	4.216511	0.730175
0.5770	4.175327	0.752424
0.5800	4.134109	0.781934
0.5830	4.093791	0.820295
0.5860	4.056008	0.869374
0.5890	4.023488	0.931160
0.5920	4.000525	1.007349
0.5950	3.993448	1.098436
0.5980	4.010630	1.202122
0.6010	4.061275	1.311147
0.6040	4.152050	1.411623
0.6070	4.281750	1.484139
0.6100	4.436884	1.509793
0.6130	4.593232	1.479582
0.6160	4.725221	1.400271
0.6190	4.816851	1.290749
0.6220	4.865492	1.172101
0.6250	4.877748	1.059909
0.6280	4.863214	0.962492
0.6310	4.830452	0.882857
0.6340	4.785599	0.821332
0.6370	4.732447	0.777576
0.6400	4.673027	0.751936
0.6430	4.608391	0.746602
0.6460	4.539850	0.767089
0.6490	4.471990	0.824523
0.6520	4.421489	0.937931
0.6550	4.442736	1.126196
0.6580	4.617067	1.307020
0.6610	4.951942	1.371914
0.6640	5.264975	1.160604
0.6670	5.354904	0.853233
0.6700	5.304343	0.620683
0.6730	5.214247	0.471850
0.6760	5.123664	0.377275
0.6790	5.042595	0.314881
0.6820	4.972059	0.271821
0.6850	4.910802	0.240821
0.6880	4.857242	0.217661
0.6910	4.809973	0.199796
0.6940	4.767851	0.185632
0.6970	4.729973	0.174137
0.7000	4.695630	0.164616
0.7030	4.664260	0.156594
0.7060	4.635418	0.149731
0.7090	4.608747	0.143784
0.7120	4.583956	0.138572
0.7150	4.560809	0.133959
0.7180	4.539108	0.129841
0.7210	4.518692	0.126137
0.7240	4.499420	0.122783
0.7270	4.481178	0.119727
0.7300	4.463865	0.116928
0.7330	4.447394	0.114352
0.7360	4.431693	0.111971
0.7390	4.416695	0.109762
0.7420	4.402344	0.107704
0.7450	4.388588	0.105781
0.7480	4.375385	0.103978
0.7510	4.362693	0.102284
0.7540	4.350478	0.100687
0.7570	4.338707	0.099179
0.7600	4.327352	0.097751
0.7630	4.316386	0.096396
0.7660	4.305786	0.095108
0.7690	4.295531	0.093881
0.7720	4.285601	0.092711
0.7750	4.275977	0.091592
0.7780	4.266643	0.090521
0.7810	4.257585	0.089495
0.7840	4.248787	0.088510
0.7870	4.240237	0.087563
0.7900	4.231923	0.086652
0.7930	4.223834	0.085775
0.7960	4.215959	0.084928
0.7990	4.208288	0.084111
0.8020	4.200813	0.083321
0.8050	4.193524	0.082556
0.8080	4.186415	0.081816
0.8110	4.179478	0.081099
0.8140	4.172705	0.080403
0.8170	4.166090	0.079728
0.8200	4.159627	0.079071
0.8230	4.153310	0.078433
0.8260	4.147133	0.077813
0.8290	4.141092	0.077208
0.8320	4.135181	0.076620
0.8350	4.129396	0.076046
0.8380	4.123732	0.075486
0.8410	4.118185	0.074940
0.8440	4.112751	0.074406
0.8470	4.107426	0.073885
0.8500	4.102207	0.073376
0.8530	4.097091	0.072878
0.8560	4.092072	0.072390
0.8590	4.087151	0.071913
0.8620	4.082321	0.071446
0.8650	4.077582	0.070989
0.8680	4.072930	0.070540
0.8710	4.068362	0.070101
0.8740	4.063877	0.069669
0.8770	4.059471	0.069246
0.8800	4.055143	0.068831
0.8830	4.050890	0.068423
0.8860	4.046710	0.068023
0.8890	4.042602	0.067629
0.8920	4.038562	0.067243
0.8950	4.034590	0.066863
0.8980	4.030683	0.066489
0.9010	4.026840	0.066121
0.9040	4.023059	0.065760
0.9070	4.019339	0.065404
0.9100	4.015677	0.065054
0.9130	4.012073	0.064709
0.9160	4.008524	0.064369
0.9190	4.005031	0.064035
0.9220	4.001591	0.063705
0.9250	3.998202	0.063380
0.9280	3.994865	0.063060
0.9310	3.991577	0.062745
0.9340	3.988337	0.062433
0.9370	3.985144	0.062127
0.9400	3.981998	0.061824
0.9430	3.978897	0.061525
0.9460	3.975839	0.061231
0.9490	3.972825	0.060940
0.9520	3.969853	0.060653
0.9550	3.966922	0.060370
0.9580	3.964031	0.060090
0.9610	3.961180	0.059814
0.9640	3.958367	0.059541
0.9670	3.955592	0.059271
0.9700	3.952854	0.059005
0.9730	3.950152	0.058742
0.9760	3.947485	0.058482
0.9790	3.944853	0.058225
0.9820	3.942255	0.057971
0.9850	3.939690	0.057720
0.9880	3.937157	0.057472
0.9910	3.934657	0.057226
0.9940	3.932188	0.056983
0.9970	3.929749	0.056743
1.0000	3.927341	0.056506
1.0075	3.921447	0.055923
1.0150	3.915729	0.055356
1.0225	3.910178	0.054803
1.0300	3.904787	0.054264
1.0375	3.899548	0.053738
1.0450	3.894455	0.053225
1.0525	3.889501	0.052723
1.0600	3.884680	0.052233
1.0675	3.879987	0.051755
1.0750	3.875416	0.051286
1.0825	3.870963	0.050828
1.0900	3.866621	0.050380
1.0975	3.862388	0.049941
1.1050	3.858258	0.049512
1.1125	3.854228	0.049091
1.1200	3.850293	0.048678
1.1275	3.846451	0.048274
1.1350	3.842697	0.047877
1.1425	3.839028	0.047489
1.1500	3.835442	0.047107
1.1575	3.831934	0.046732
1.1650	3.828503	0.046365
1.1725	3.825145	0.046004
1.1800	3.821859	0.045649
1.1875	3.818641	0.045301
1.1950	3.815489	0.044959
1.2025	3.812400	0.044623
1.2100	3.809374	0.044292
1.2175	3.806407	0.043967
1.2250	3.803498	0.043648
1.2325	3.800644	0.043334
1.2400	3.797844	0.043024
1.2475	3.795097	0.042720
1.2550	3.792400	0.042421
1.2625	3.789751	0.042126
1.2700	3.787150	0.041836
1.2775	3.784595	0.041551
1.2850	3.782085	0.041269
1.2925	3.779617	0.040992
1.3000	3.777191	0.040719
1.3075	3.774806	0.040451
1.3150	3.772460	0.040186
1.3225	3.770152	0.039925
1.3300	3.767881	0.039668
1.3375	3.765646	0.039414
1.3450	3.763445	0.039164
1.3525	3.761278	0.038918
1.3600	3.759145	0.038674
1.3675	3.757043	0.038435
1.3750	3.754972	0.038198
1.3825	3.752931	0.037965
1.3900	3.750919	0.037735
1.3975	3.748936	0.037508
1.4050	3.746980	0.037284
1.4125	3.745052	0.037063
1.4200	3.743149	0.036845
1.4275	3.741272	0.036629
1.4350	3.739419	0.036417
1.4425	3.737591	0.036207
1.4500	3.735786	0.035999
1.4575	3.734004	0.035795
1.4650	3.732244	0.035593
1.4725	3.730505	0.035393
1.4800	3.728788	0.035196
1.4875	3.727091	0.035001
1.4950	3.725414	0.034808
1.5025	3.723756	0.034618
1.5100	3.722117	0.034430
1.5175	3.720497	0.034245
1.5250	3.718894	0.034061
1.5325	3.717309	0.033880
1.5400	3.715742	0.033701
1.5475	3.714190	0.033524
1.5550	3.712655	0.033348
1.5625	3.711136	0.033175
1.5700	3.709632	0.033004
1.5775	3.708143	0.032835
1.5850	3.706668	0.032667
1.5925	3.705208	0.032502
1.6000	3.703762	0.032338
1.6075	3.702329	0.032176
1.6150	3.700910	0.032016
1.6225	3.699503	0.031858
1.6300	3.698109	0.031701
1.6375	3.696728	0.031546
1.6450	3.695358	0.031392
1.6525	3.694000	0.031241
1.6600	3.692653	0.031090
1.6675	3.691317	0.030942
1.6750	3.689992	0.030795
1.6825	3.688678	0.030649
1.6900	3.687374	0.030505
