Material: inorganic / MoS2 / Song-6L
Optical constants. B. Song, H. Gu, M. Fang, X. Chen, H. Jiang, R. Wang, T. Zhai, Y.-T. Ho, S. Liu. Layer-dependent dielectric function of wafer-scale 2D MoS2, Adv. Optical Mater. 7, 1801250 (2019) (Numerical data kindly provided by Baokun Song)
Comments: 6-layer, 6L
Specs: {"n_absolute": true, "wavelength_vacuum": true, "film_thickness": "6L", "substrate": "c-sapphire"}
wavelength (um)	n	k
0.1930	1.329657	2.425864
0.1960	1.392938	2.450917
0.1990	1.454374	2.471150
0.2020	1.513178	2.487075
0.2050	1.568689	2.499399
0.2080	1.620427	2.508983
0.2110	1.668134	2.516783
0.2140	1.711796	2.523791
0.2170	1.751639	2.530962
0.2200	1.788109	2.539153
0.2230	1.821835	2.549073
0.2260	1.853579	2.561246
0.2290	1.884185	2.575990
0.2320	1.914527	2.593414
0.2350	1.945456	2.613423
0.2380	1.977764	2.635738
0.2410	2.012146	2.659918
0.2440	2.049178	2.685389
0.2470	2.089292	2.711475
0.2500	2.132768	2.737426
0.2530	2.179727	2.762452
0.2560	2.230125	2.785750
0.2590	2.283756	2.806535
0.2620	2.340261	2.824069
0.2650	2.399134	2.837688
0.2680	2.459738	2.846831
0.2710	2.521329	2.851061
0.2740	2.583077	2.850091
0.2770	2.644104	2.843794
0.2800	2.703508	2.832213
0.2830	2.760410	2.815563
0.2860	2.813979	2.794219
0.2890	2.863470	2.768698
0.2920	2.908246	2.739640
0.2950	2.947796	2.707778
0.2980	2.981748	2.673904
0.3010	3.009864	2.638844
0.3040	3.032039	2.603428
0.3070	3.048292	2.568472
0.3100	3.058744	2.534757
0.3130	3.063612	2.503017
0.3160	3.063184	2.473939
0.3190	3.057810	2.448158
0.3220	3.047893	2.426257
0.3250	3.033873	2.408779
0.3280	3.016232	2.396224
0.3310	2.995486	2.389062
0.3340	2.972194	2.387736
0.3370	2.946960	2.392661
0.3400	2.920446	2.404232
0.3430	2.893380	2.422811
0.3460	2.866571	2.448726
0.3490	2.840924	2.482250
0.3520	2.817447	2.523585
0.3550	2.797265	2.572829
0.3580	2.781620	2.629944
0.3610	2.771872	2.694709
0.3640	2.769479	2.766669
0.3670	2.775975	2.845076
0.3700	2.792913	2.928821
0.3730	2.821791	3.016363
0.3760	2.863919	3.105663
0.3790	2.920247	3.194150
0.3820	2.991112	3.278743
0.3850	3.075954	3.355993
0.3880	3.173030	3.422407
0.3910	3.279269	3.474969
0.3940	3.390407	3.511812
0.3970	3.501532	3.532835
0.4000	3.607992	3.539988
0.4030	3.706410	3.536990
0.4060	3.795411	3.528511
0.4090	3.875775	3.519089
0.4120	3.950012	3.512194
0.4150	4.021605	3.509705
0.4180	4.094202	3.511832
0.4210	4.170987	3.517377
0.4240	4.254291	3.524134
0.4270	4.345421	3.529328
0.4300	4.444644	3.530000
0.4330	4.551271	3.523323
0.4360	4.663797	3.506848
0.4390	4.780085	3.478693
0.4420	4.897573	3.437665
0.4450	5.013498	3.383323
0.4480	5.125124	3.315978
0.4510	5.229942	3.236619
0.4540	5.325851	3.146795
0.4570	5.411264	3.048442
0.4600	5.485163	2.943709
0.4630	5.547084	2.834782
0.4660	5.597063	2.723738
0.4690	5.635542	2.612442
0.4720	5.663264	2.502481
0.4750	5.681168	2.395134
0.4780	5.690299	2.291385
0.4810	5.691732	2.191939
0.4840	5.686518	2.097265
0.4870	5.675646	2.007630
0.4900	5.660020	1.923146
0.4930	5.640446	1.843804
0.4960	5.617633	1.769507
0.4990	5.592193	1.700096
0.5020	5.564649	1.635373
0.5050	5.535442	1.575117
0.5080	5.504941	1.519098
0.5110	5.473451	1.467083
0.5140	5.441223	1.418847
0.5170	5.408459	1.374178
0.5200	5.375324	1.332877
0.5230	5.341947	1.294762
0.5260	5.308430	1.259672
0.5290	5.274853	1.227465
0.5320	5.241275	1.198021
0.5350	5.207741	1.171242
0.5380	5.174287	1.147050
0.5410	5.140938	1.125396
0.5440	5.107717	1.106250
0.5470	5.074647	1.089612
0.5500	5.041754	1.075507
0.5530	5.009075	1.063991
0.5560	4.976660	1.055149
0.5590	4.944586	1.049102
0.5620	4.912960	1.046001
0.5650	4.881938	1.046034
0.5680	4.851737	1.049420
0.5710	4.822657	1.056401
0.5740	4.795107	1.067236
0.5770	4.769630	1.082172
0.5800	4.746937	1.101410
0.5830	4.727931	1.125047
0.5860	4.713724	1.152991
0.5890	4.705617	1.184851
0.5920	4.705045	1.219802
0.5950	4.713423	1.256446
0.5980	4.731912	1.292724
0.6010	4.761092	1.325923
0.6040	4.800592	1.352883
0.6070	4.848821	1.370407
0.6100	4.902909	1.375853
0.6130	4.959011	1.367738
0.6160	5.012902	1.346118
0.6190	5.060729	1.312602
0.6220	5.099612	1.269966
0.6250	5.127946	1.221559
0.6280	5.145343	1.170718
0.6310	5.152343	1.120368
0.6340	5.150047	1.072867
0.6370	5.139802	1.030041
0.6400	5.123000	0.993358
0.6430	5.101017	0.964163
0.6460	5.075323	0.943953
0.6490	5.047824	0.934633
0.6520	5.021600	0.938653
0.6550	5.002255	0.958577
0.6580	4.999771	0.994911
0.6610	5.028577	1.040225
0.6640	5.098740	1.071427
0.6670	5.195869	1.056541
0.6700	5.279787	0.987042
0.6730	5.322111	0.889783
0.6760	5.325769	0.795076
0.6790	5.306572	0.715892
0.6820	5.277170	0.652800
0.6850	5.244410	0.602366
0.6880	5.211294	0.560977
0.6910	5.178797	0.525816
0.6940	5.146819	0.494878
0.6970	5.114462	0.466800
0.7000	5.078721	0.440821
0.7030	5.041260	0.428379
0.7060	5.011674	0.418615
0.7090	4.985223	0.409989
0.7120	4.960997	0.402321
0.7150	4.938538	0.395451
0.7180	4.917552	0.389251
0.7210	4.897832	0.383619
0.7240	4.879216	0.378470
0.7270	4.861578	0.373738
0.7300	4.844812	0.369369
0.7330	4.828833	0.365317
0.7360	4.813568	0.361544
0.7390	4.798954	0.358019
0.7420	4.784937	0.354715
0.7450	4.771470	0.351609
0.7480	4.758511	0.348680
0.7510	4.746023	0.345913
0.7540	4.733974	0.343293
0.7570	4.722334	0.340805
0.7600	4.711078	0.338440
0.7630	4.700181	0.336187
0.7660	4.689622	0.334036
0.7690	4.679381	0.331981
0.7720	4.669441	0.330014
0.7750	4.659785	0.328128
0.7780	4.650399	0.326319
0.7810	4.641268	0.324580
0.7840	4.632379	0.322907
0.7870	4.623721	0.321296
0.7900	4.615283	0.319742
0.7930	4.607054	0.318243
0.7960	4.599025	0.316796
0.7990	4.591188	0.315396
0.8020	4.583534	0.314042
0.8050	4.576055	0.312731
0.8080	4.568744	0.311461
0.8110	4.561594	0.310229
0.8140	4.554598	0.309034
0.8170	4.547752	0.307874
0.8200	4.541049	0.306746
0.8230	4.534482	0.305650
0.8260	4.528049	0.304585
0.8290	4.521744	0.303548
0.8320	4.515561	0.302538
0.8350	4.509498	0.301554
0.8380	4.503549	0.300596
0.8410	4.497711	0.299662
0.8440	4.491981	0.298750
0.8470	4.486354	0.297861
0.8500	4.480827	0.296993
0.8530	4.475398	0.296146
0.8560	4.470063	0.295318
0.8590	4.464818	0.294510
0.8620	4.459662	0.293719
0.8650	4.454593	0.292946
0.8680	4.449605	0.292190
0.8710	4.444700	0.291451
0.8740	4.439872	0.290728
0.8770	4.435121	0.290020
0.8800	4.430443	0.289326
0.8830	4.425838	0.288648
0.8860	4.421302	0.287983
0.8890	4.416835	0.287332
0.8920	4.412434	0.286693
0.8950	4.408098	0.286068
0.8980	4.403824	0.285455
0.9010	4.399612	0.284854
0.9040	4.395460	0.284265
0.9070	4.391365	0.283687
0.9100	4.387328	0.283120
0.9130	4.383345	0.282563
0.9160	4.379417	0.282018
0.9190	4.375541	0.281482
0.9220	4.371717	0.280956
0.9250	4.367943	0.280441
0.9280	4.364218	0.279934
0.9310	4.360541	0.279437
0.9340	4.356912	0.278949
0.9370	4.353327	0.278469
0.9400	4.349788	0.277998
0.9430	4.346292	0.277536
0.9460	4.342839	0.277081
0.9490	4.339428	0.276635
0.9520	4.336058	0.276197
0.9550	4.332727	0.275766
0.9580	4.329437	0.275342
0.9610	4.326185	0.274926
0.9640	4.322970	0.274517
0.9670	4.319792	0.274116
0.9700	4.316651	0.273721
0.9730	4.313545	0.273333
0.9760	4.310473	0.272951
0.9790	4.307436	0.272576
0.9820	4.304432	0.272207
0.9850	4.301461	0.271845
0.9880	4.298522	0.271488
0.9910	4.295614	0.271138
0.9940	4.292738	0.270793
0.9970	4.289892	0.270454
1.0000	4.287075	0.270121
1.0075	4.280161	0.269313
1.0150	4.273422	0.268538
1.0225	4.266850	0.267794
1.0300	4.260439	0.267081
1.0375	4.254182	0.266397
1.0450	4.248072	0.265742
1.0525	4.242105	0.265113
1.0600	4.236274	0.264510
1.0675	4.230575	0.263932
1.0750	4.225002	0.263379
1.0825	4.219553	0.262848
1.0900	4.214221	0.262340
1.0975	4.209003	0.261853
1.1050	4.203897	0.261387
1.1125	4.198897	0.260942
1.1200	4.194002	0.260515
1.1275	4.189207	0.260107
1.1350	4.184510	0.259718
1.1425	4.179909	0.259346
1.1500	4.175400	0.258991
1.1575	4.170981	0.258652
1.1650	4.166651	0.258330
1.1725	4.162406	0.258022
1.1800	4.158246	0.257730
1.1875	4.154167	0.257452
1.1950	4.150168	0.257189
1.2025	4.146249	0.256939
1.2100	4.142406	0.256702
1.2175	4.138638	0.256477
1.2250	4.134945	0.256266
1.2325	4.131326	0.256066
1.2400	4.127777	0.255878
1.2475	4.124300	0.255701
1.2550	4.120892	0.255536
1.2625	4.117552	0.255381
1.2700	4.114280	0.255236
1.2775	4.111076	0.255102
1.2850	4.107937	0.254977
1.2925	4.104864	0.254861
1.3000	4.101856	0.254755
1.3075	4.098912	0.254658
1.3150	4.096032	0.254569
1.3225	4.093215	0.254489
1.3300	4.090460	0.254416
1.3375	4.087769	0.254352
1.3450	4.085139	0.254295
1.3525	4.082571	0.254246
1.3600	4.080065	0.254204
1.3675	4.077620	0.254168
1.3750	4.075236	0.254139
1.3825	4.072914	0.254117
1.3900	4.070652	0.254101
1.3975	4.068452	0.254091
1.4050	4.066312	0.254087
1.4125	4.064234	0.254089
1.4200	4.062216	0.254095
1.4275	4.060260	0.254108
1.4350	4.058365	0.254125
1.4425	4.056531	0.254147
1.4500	4.054759	0.254173
1.4575	4.053049	0.254204
1.4650	4.051401	0.254240
1.4725	4.049815	0.254279
1.4800	4.048292	0.254322
1.4875	4.046832	0.254370
1.4950	4.045435	0.254420
1.5025	4.044103	0.254474
1.5100	4.042834	0.254532
1.5175	4.041629	0.254592
1.5250	4.040490	0.254655
1.5325	4.039416	0.254721
1.5400	4.038409	0.254789
1.5475	4.037467	0.254860
1.5550	4.036593	0.254933
1.5625	4.035787	0.255009
1.5700	4.035049	0.255086
1.5775	4.034380	0.255165
1.5850	4.033780	0.255245
1.5925	4.033250	0.255327
1.6000	4.032792	0.255410
1.6075	4.032404	0.255495
1.6150	4.032090	0.255580
1.6225	4.031848	0.255666
1.6300	4.031680	0.255753
1.6375	4.031586	0.255841
1.6450	4.031568	0.255929
1.6525	4.031626	0.256017
1.6600	4.031761	0.256105
1.6675	4.031974	0.256194
1.6750	4.032266	0.256282
1.6825	4.032637	0.256370
1.6900	4.033089	0.256457
