Material: inorganic / MoS2 / Song-10L
Optical constants. B. Song, H. Gu, M. Fang, X. Chen, H. Jiang, R. Wang, T. Zhai, Y.-T. Ho, S. Liu. Layer-dependent dielectric function of wafer-scale 2D MoS2, Adv. Optical Mater. 7, 1801250 (2019) (Numerical data kindly provided by Baokun Song)
Comments: 10-layer, 10L
Specs: {"n_absolute": true, "wavelength_vacuum": true, "film_thickness": "10L", "substrate": "c-sapphire"}
wavelength (um)	n	k
0.1930	1.542733	1.765101
0.1960	1.592682	1.798155
0.1990	1.640728	1.824115
0.2020	1.685814	1.844096
0.2050	1.727158	1.859364
0.2080	1.764296	1.871271
0.2110	1.797090	1.881171
0.2140	1.825715	1.890344
0.2170	1.850617	1.899926
0.2200	1.872465	1.910853
0.2230	1.892086	1.923830
0.2260	1.910398	1.939313
0.2290	1.928354	1.957508
0.2320	1.946882	1.978389
0.2350	1.966843	2.001718
0.2380	1.988989	2.027076
0.2410	2.013942	2.053897
0.2440	2.042168	2.081502
0.2470	2.073967	2.109139
0.2500	2.109470	2.136011
0.2530	2.148636	2.161317
0.2560	2.191260	2.184276
0.2590	2.236979	2.204165
0.2620	2.285289	2.220342
0.2650	2.335563	2.232272
0.2680	2.387074	2.239552
0.2710	2.439026	2.241925
0.2740	2.490582	2.239293
0.2770	2.540900	2.231723
0.2800	2.589170	2.219437
0.2830	2.634641	2.202806
0.2860	2.676652	2.182325
0.2890	2.714652	2.158591
0.2920	2.748213	2.132270
0.2950	2.777035	2.104074
0.2980	2.800943	2.074731
0.3010	2.819880	2.044957
0.3040	2.833891	2.015444
0.3070	2.843112	1.986842
0.3100	2.847750	1.959754
0.3130	2.848072	1.934728
0.3160	2.844388	1.912265
0.3190	2.837043	1.892815
0.3220	2.826408	1.876786
0.3250	2.812877	1.864549
0.3280	2.796867	1.856446
0.3310	2.778815	1.852792
0.3340	2.759189	1.853880
0.3370	2.738489	1.859983
0.3400	2.717260	1.871351
0.3430	2.696097	1.888205
0.3460	2.675656	1.910728
0.3490	2.656665	1.939049
0.3520	2.639922	1.973226
0.3550	2.626305	2.013217
0.3580	2.616758	2.058851
0.3610	2.612281	2.109797
0.3640	2.613902	2.165527
0.3670	2.622637	2.225284
0.3700	2.639433	2.288054
0.3730	2.665096	2.352553
0.3760	2.700199	2.417225
0.3790	2.744975	2.480288
0.3820	2.799213	2.539808
0.3850	2.862158	2.593837
0.3880	2.932471	2.640610
0.3910	3.008263	2.678780
0.3940	3.087250	2.707644
0.3970	3.167021	2.727314
0.4000	3.245384	2.738735
0.4030	3.320708	2.743549
0.4060	3.392167	2.743794
0.4090	3.459815	2.741532
0.4120	3.524483	2.738490
0.4150	3.587553	2.735811
0.4180	3.650659	2.733925
0.4210	3.715400	2.732558
0.4240	3.783107	2.730834
0.4270	3.854673	2.727437
0.4300	3.930462	2.720799
0.4330	4.010284	2.709285
0.4360	4.093418	2.691372
0.4390	4.178691	2.665796
0.4420	4.264585	2.631668
0.4450	4.349371	2.588555
0.4480	4.431262	2.536503
0.4510	4.508552	2.476023
0.4540	4.579747	2.408027
0.4570	4.643657	2.333735
0.4600	4.699450	2.254561
0.4630	4.746668	2.171995
0.4660	4.785204	2.087502
0.4690	4.815249	2.002439
0.4720	4.837233	1.917995
0.4750	4.851753	1.835165
0.4780	4.859510	1.754739
0.4810	4.861254	1.677311
0.4840	4.857737	1.603299
0.4870	4.849685	1.532969
0.4900	4.837775	1.466464
0.4930	4.822623	1.403827
0.4960	4.804776	1.345028
0.4990	4.784715	1.289981
0.5020	4.762855	1.238565
0.5050	4.739552	1.190633
0.5080	4.715104	1.146028
0.5110	4.689762	1.104587
0.5140	4.663735	1.066147
0.5170	4.637194	1.030555
0.5200	4.610278	0.997665
0.5230	4.583098	0.967343
0.5260	4.555746	0.939472
0.5290	4.528292	0.913946
0.5320	4.500793	0.890678
0.5350	4.473293	0.869598
0.5380	4.445830	0.850654
0.5410	4.418434	0.833813
0.5440	4.391136	0.819060
0.5470	4.363965	0.806403
0.5500	4.336959	0.795872
0.5530	4.310165	0.787519
0.5560	4.283648	0.781420
0.5590	4.257493	0.777676
0.5620	4.231821	0.776412
0.5650	4.206796	0.777774
0.5680	4.182640	0.781927
0.5710	4.159648	0.789042
0.5740	4.138207	0.799284
0.5770	4.118819	0.812785
0.5800	4.102109	0.829610
0.5830	4.088843	0.849699
0.5860	4.079916	0.872802
0.5890	4.076314	0.898390
0.5920	4.079031	0.925575
0.5950	4.088930	0.953039
0.5980	4.106547	0.979026
0.6010	4.131867	1.001436
0.6040	4.164124	1.018040
0.6070	4.201714	1.026818
0.6100	4.242288	1.026344
0.6130	4.283055	1.016093
0.6160	4.321210	0.996564
0.6190	4.354364	0.969172
0.6220	4.380849	0.935943
0.6250	4.399813	0.899143
0.6280	4.411132	0.860952
0.6310	4.415225	0.823267
0.6340	4.412827	0.787632
0.6370	4.404814	0.755281
0.6400	4.392098	0.727254
0.6430	4.375602	0.704556
0.6460	4.356366	0.688340
0.6490	4.335829	0.680093
0.6520	4.316450	0.681692
0.6550	4.302829	0.694909
0.6580	4.303057	0.719251
0.6610	4.327641	0.746720
0.6640	4.379833	0.757453
0.6670	4.441580	0.731777
0.6700	4.484241	0.674300
0.6730	4.497250	0.608001
0.6760	4.488612	0.549256
0.6790	4.469112	0.502342
0.6820	4.445603	0.465834
0.6850	4.421430	0.437169
0.6880	4.398000	0.414162
0.6910	4.375809	0.395226
0.6940	4.354958	0.379268
0.6970	4.335388	0.365535
0.7000	4.316988	0.353506
0.7030	4.299632	0.342811
0.7060	4.283201	0.333184
0.7090	4.267590	0.324431
0.7120	4.252704	0.316402
0.7150	4.238463	0.308986
0.7180	4.224795	0.302095
0.7210	4.211637	0.295658
0.7240	4.198934	0.289620
0.7270	4.186633	0.283935
0.7300	4.174685	0.278564
0.7330	4.163041	0.273478
0.7360	4.151642	0.268651
0.7390	4.140415	0.264062
0.7420	4.129208	0.259699
0.7450	4.117525	0.256143
0.7480	4.106926	0.253641
0.7510	4.097004	0.251241
0.7540	4.087553	0.248944
0.7570	4.078490	0.246745
0.7600	4.069766	0.244639
0.7630	4.061346	0.242619
0.7660	4.053202	0.240679
0.7690	4.045314	0.238814
0.7720	4.037664	0.237019
0.7750	4.030235	0.235289
0.7780	4.023015	0.233621
0.7810	4.015989	0.232011
0.7840	4.009150	0.230455
0.7870	4.002485	0.228949
0.7900	3.995987	0.227492
0.7930	3.989646	0.226080
0.7960	3.983457	0.224711
0.7990	3.977411	0.223383
0.8020	3.971502	0.222093
0.8050	3.965724	0.220840
0.8080	3.960072	0.219621
0.8110	3.954540	0.218435
0.8140	3.949124	0.217281
0.8170	3.943819	0.216156
0.8200	3.938621	0.215060
0.8230	3.933525	0.213991
0.8260	3.928528	0.212949
0.8290	3.923627	0.211931
0.8320	3.918817	0.210937
0.8350	3.914096	0.209967
0.8380	3.909460	0.209018
0.8410	3.904907	0.208090
0.8440	3.900433	0.207183
0.8470	3.896037	0.206295
0.8500	3.891715	0.205425
0.8530	3.887466	0.204574
0.8560	3.883286	0.203741
0.8590	3.879175	0.202924
0.8620	3.875129	0.202123
0.8650	3.871147	0.201339
0.8680	3.867227	0.200569
0.8710	3.863367	0.199814
0.8740	3.859565	0.199073
0.8770	3.855819	0.198346
0.8800	3.852129	0.197632
0.8830	3.848492	0.196931
0.8860	3.844907	0.196243
0.8890	3.841372	0.195566
0.8920	3.837886	0.194902
0.8950	3.834449	0.194249
0.8980	3.831058	0.193607
0.9010	3.827712	0.192976
0.9040	3.824410	0.192355
0.9070	3.821151	0.191745
0.9100	3.817934	0.191144
0.9130	3.814758	0.190554
0.9160	3.811621	0.189972
0.9190	3.808524	0.189400
0.9220	3.805464	0.188837
0.9250	3.802441	0.188283
0.9280	3.799454	0.187737
0.9310	3.796503	0.187199
0.9340	3.793586	0.186670
0.9370	3.790702	0.186148
0.9400	3.787850	0.185635
0.9430	3.785031	0.185129
0.9460	3.782243	0.184630
0.9490	3.779485	0.184139
0.9520	3.776758	0.183654
0.9550	3.774059	0.183177
0.9580	3.771389	0.182706
0.9610	3.768746	0.182242
0.9640	3.766131	0.181785
0.9670	3.763543	0.181334
0.9700	3.760980	0.180889
0.9730	3.758443	0.180450
0.9760	3.755931	0.180017
0.9790	3.753443	0.179590
0.9820	3.750979	0.179169
0.9850	3.748538	0.178754
0.9880	3.746121	0.178344
0.9910	3.743725	0.177940
0.9940	3.741352	0.177541
0.9970	3.739000	0.177147
1.0000	3.736669	0.176758
1.0075	3.730931	0.175808
1.0150	3.725315	0.174889
1.0225	3.719815	0.173998
1.0300	3.714427	0.173135
1.0375	3.709143	0.172299
1.0450	3.703960	0.171488
1.0525	3.698872	0.170702
1.0600	3.693875	0.169940
1.0675	3.688965	0.169201
1.0750	3.684138	0.168483
1.0825	3.679390	0.167787
1.0900	3.674718	0.167111
1.0975	3.670118	0.166455
1.1050	3.665586	0.165818
1.1125	3.661121	0.165200
1.1200	3.656719	0.164599
1.1275	3.652377	0.164016
1.1350	3.648092	0.163450
1.1425	3.643863	0.162900
1.1500	3.639686	0.162366
1.1575	3.635560	0.161847
1.1650	3.631482	0.161344
1.1725	3.627450	0.160854
1.1800	3.623463	0.160379
1.1875	3.619518	0.159917
1.1950	3.615613	0.159469
1.2025	3.611748	0.159034
1.2100	3.607919	0.158611
1.2175	3.604126	0.158201
1.2250	3.600368	0.157803
1.2325	3.596641	0.157416
1.2400	3.592946	0.157041
1.2475	3.589281	0.156677
1.2550	3.585644	0.156324
1.2625	3.582035	0.155981
1.2700	3.578452	0.155649
1.2775	3.574893	0.155327
1.2850	3.571359	0.155015
1.2925	3.567847	0.154713
1.3000	3.564358	0.154420
1.3075	3.560889	0.154136
1.3150	3.557439	0.153861
1.3225	3.554009	0.153596
1.3300	3.550597	0.153339
1.3375	3.547202	0.153090
1.3450	3.543823	0.152850
1.3525	3.540460	0.152618
1.3600	3.537111	0.152394
1.3675	3.533777	0.152178
1.3750	3.530456	0.151969
1.3825	3.527148	0.151768
1.3900	3.523851	0.151575
1.3975	3.520566	0.151388
1.4050	3.517292	0.151209
1.4125	3.514027	0.151037
1.4200	3.510772	0.150872
1.4275	3.507526	0.150714
1.4350	3.504289	0.150562
1.4425	3.501059	0.150416
1.4500	3.497836	0.150278
1.4575	3.494620	0.150145
1.4650	3.491411	0.150019
1.4725	3.488207	0.149899
1.4800	3.485009	0.149784
1.4875	3.481815	0.149676
1.4950	3.478626	0.149574
1.5025	3.475441	0.149477
1.5100	3.472260	0.149386
1.5175	3.469082	0.149300
1.5250	3.465907	0.149220
1.5325	3.462734	0.149146
1.5400	3.459563	0.149076
1.5475	3.456394	0.149012
1.5550	3.453226	0.148953
1.5625	3.450059	0.148900
1.5700	3.446893	0.148851
1.5775	3.443728	0.148807
1.5850	3.440562	0.148768
1.5925	3.437396	0.148734
1.6000	3.434230	0.148705
1.6075	3.431062	0.148680
1.6150	3.427894	0.148660
1.6225	3.424724	0.148645
1.6300	3.421552	0.148634
1.6375	3.418379	0.148628
1.6450	3.415203	0.148626
1.6525	3.412024	0.148628
1.6600	3.408843	0.148635
1.6675	3.405659	0.148646
1.6750	3.402472	0.148661
1.6825	3.399281	0.148681
1.6900	3.396086	0.148704
