Material: inorganic / MoS2 / Song-4L
Optical constants. B. Song, H. Gu, M. Fang, X. Chen, H. Jiang, R. Wang, T. Zhai, Y.-T. Ho, S. Liu. Layer-dependent dielectric function of wafer-scale 2D MoS2, Adv. Optical Mater. 7, 1801250 (2019) (Numerical data kindly provided by Baokun Song)
Comments: 4-layer, 4L
Specs: {"n_absolute": true, "wavelength_vacuum": true, "film_thickness": "4L", "substrate": "c-sapphire"}
wavelength (um)	n	k
0.1930	1.439300	1.620206
0.1960	1.463735	1.653362
0.1990	1.488913	1.681306
0.2020	1.514045	1.705060
0.2050	1.538573	1.725512
0.2080	1.562128	1.743455
0.2110	1.584490	1.759602
0.2140	1.605569	1.774594
0.2170	1.625388	1.789002
0.2200	1.644065	1.803329
0.2230	1.661802	1.818001
0.2260	1.678870	1.833368
0.2290	1.695594	1.849697
0.2320	1.712341	1.867169
0.2350	1.729505	1.885877
0.2380	1.747493	1.905822
0.2410	1.766707	1.926914
0.2440	1.787534	1.948977
0.2470	1.810322	1.971745
0.2500	1.835372	1.994874
0.2530	1.862920	2.017950
0.2560	1.893119	2.040496
0.2590	1.926029	2.061994
0.2620	1.961607	2.081894
0.2650	1.999696	2.099643
0.2680	2.040021	2.114703
0.2710	2.082191	2.126581
0.2740	2.125708	2.134850
0.2770	2.169976	2.139179
0.2800	2.214327	2.139354
0.2830	2.258043	2.135294
0.2860	2.300390	2.127060
0.2890	2.340653	2.114861
0.2920	2.378162	2.099040
0.2950	2.412326	2.080061
0.2980	2.442656	2.058488
0.3010	2.468774	2.034953
0.3040	2.490425	2.010131
0.3070	2.507476	1.984712
0.3100	2.519902	1.959378
0.3130	2.527779	1.934786
0.3160	2.531267	1.911551
0.3190	2.530596	1.890244
0.3220	2.526050	1.871385
0.3250	2.517953	1.855445
0.3280	2.506665	1.842856
0.3310	2.492570	1.834009
0.3340	2.476079	1.829263
0.3370	2.457627	1.828955
0.3400	2.437677	1.833401
0.3430	2.416730	1.842900
0.3460	2.395333	1.857737
0.3490	2.374089	1.878176
0.3520	2.353679	1.904460
0.3550	2.334870	1.936791
0.3580	2.318542	1.975313
0.3610	2.305702	2.020082
0.3640	2.297503	2.071014
0.3670	2.295258	2.127824
0.3700	2.300428	2.189924
0.3730	2.314580	2.256295
0.3760	2.339261	2.325325
0.3790	2.375746	2.394656
0.3820	2.424604	2.461135
0.3850	2.485122	2.521043
0.3880	2.554775	2.570809
0.3910	2.629228	2.608203
0.3940	2.703307	2.633515
0.3970	2.772774	2.649807
0.4000	2.835914	2.661778
0.4030	2.893869	2.673856
0.4060	2.949670	2.688740
0.4090	3.006832	2.707023
0.4120	3.068310	2.727618
0.4150	3.136030	2.748462
0.4180	3.210848	2.767121
0.4210	3.292694	2.781187
0.4240	3.380777	2.788510
0.4270	3.473757	2.787326
0.4300	3.569910	2.776332
0.4330	3.667265	2.754728
0.4360	3.763749	2.722233
0.4390	3.857314	2.679075
0.4420	3.946068	2.625947
0.4450	4.028379	2.563938
0.4480	4.102961	2.494430
0.4510	4.168908	2.418983
0.4540	4.225713	2.339227
0.4570	4.273232	2.256755
0.4600	4.311638	2.173042
0.4630	4.341353	2.089387
0.4660	4.362979	2.006887
0.4690	4.377231	1.926422
0.4720	4.384880	1.848670
0.4750	4.386708	1.774119
0.4780	4.383473	1.703097
0.4810	4.375886	1.635798
0.4840	4.364599	1.572309
0.4870	4.350195	1.512637
0.4900	4.333191	1.456726
0.4930	4.314036	1.404477
0.4960	4.293116	1.355763
0.4990	4.270761	1.310441
0.5020	4.247251	1.268359
0.5050	4.222819	1.229366
0.5080	4.197664	1.193311
0.5110	4.171946	1.160056
0.5140	4.145802	1.129469
0.5170	4.119342	1.101433
0.5200	4.092659	1.075843
0.5230	4.065830	1.052611
0.5260	4.038920	1.031663
0.5290	4.011987	1.012941
0.5320	3.985083	0.996403
0.5350	3.958258	0.982024
0.5380	3.931566	0.969798
0.5410	3.905065	0.959732
0.5440	3.878824	0.951853
0.5470	3.852925	0.946201
0.5500	3.827472	0.942831
0.5530	3.802597	0.941811
0.5560	3.778463	0.943214
0.5590	3.755275	0.947116
0.5620	3.733286	0.953583
0.5650	3.712808	0.962659
0.5680	3.694210	0.974346
0.5710	3.677924	0.988579
0.5740	3.664431	1.005196
0.5770	3.654241	1.023900
0.5800	3.647839	1.044220
0.5830	3.645597	1.065486
0.5860	3.647607	1.086821
0.5890	3.653261	1.107233
0.5920	3.658151	1.127944
0.5950	3.674698	1.155736
0.5980	3.700615	1.176451
0.6010	3.731897	1.189748
0.6040	3.766156	1.195113
0.6070	3.801185	1.192452
0.6100	3.834938	1.182200
0.6130	3.865660	1.165281
0.6160	3.892014	1.142996
0.6190	3.913132	1.116846
0.6220	3.928612	1.088378
0.6250	3.938442	1.059051
0.6280	3.942906	1.030162
0.6310	3.942480	1.002835
0.6340	3.937760	0.978043
0.6370	3.929420	0.956681
0.6400	3.918236	0.939653
0.6430	3.905197	0.927972
0.6460	3.891768	0.922827
0.6490	3.880378	0.925460
0.6520	3.875167	0.936503
0.6550	3.882419	0.954005
0.6580	3.908492	0.970001
0.6610	3.952350	0.969771
0.6640	3.998881	0.942236
0.6670	4.029106	0.893276
0.6700	4.037079	0.839174
0.6730	4.028740	0.791256
0.6760	4.011911	0.752694
0.6790	3.991802	0.722552
0.6820	3.971098	0.698919
0.6850	3.950991	0.680078
0.6880	3.931935	0.664742
0.6910	3.914042	0.652000
0.6940	3.897283	0.641214
0.6970	3.881572	0.631935
0.7000	3.866812	0.623842
0.7030	3.852905	0.616700
0.7060	3.839762	0.610337
0.7090	3.827307	0.604621
0.7120	3.815472	0.599450
0.7150	3.804197	0.594744
0.7180	3.793432	0.590440
0.7210	3.783133	0.586486
0.7240	3.773260	0.582839
0.7270	3.763780	0.579465
0.7300	3.754664	0.576334
0.7330	3.745884	0.573420
0.7360	3.737418	0.570703
0.7390	3.729244	0.568163
0.7420	3.721343	0.565784
0.7450	3.713698	0.563553
0.7480	3.706294	0.561456
0.7510	3.699117	0.559483
0.7540	3.692153	0.557625
0.7570	3.685392	0.555871
0.7600	3.678821	0.554216
0.7630	3.672432	0.552651
0.7660	3.666215	0.551171
0.7690	3.660161	0.549769
0.7720	3.654263	0.548440
0.7750	3.648514	0.547181
0.7780	3.642905	0.545985
0.7810	3.637432	0.544851
0.7840	3.632087	0.543773
0.7870	3.626866	0.542749
0.7900	3.621763	0.541775
0.7930	3.616773	0.540850
0.7960	3.611891	0.539970
0.7990	3.607113	0.539132
0.8020	3.602435	0.538335
0.8050	3.597854	0.537577
0.8080	3.593364	0.536856
0.8110	3.588963	0.536169
0.8140	3.584648	0.535516
0.8170	3.580415	0.534895
0.8200	3.576261	0.534304
0.8230	3.572183	0.533742
0.8260	3.568179	0.533208
0.8290	3.564247	0.532701
0.8320	3.560383	0.532219
0.8350	3.556585	0.531761
0.8380	3.552851	0.531327
0.8410	3.549180	0.530916
0.8440	3.545568	0.530527
0.8470	3.542014	0.530158
0.8500	3.538517	0.529810
0.8530	3.535074	0.529481
0.8560	3.531683	0.529171
0.8590	3.528343	0.528879
0.8620	3.525053	0.528604
0.8650	3.521810	0.528347
0.8680	3.518614	0.528106
0.8710	3.515463	0.527880
0.8740	3.512356	0.527671
0.8770	3.509291	0.527476
0.8800	3.506267	0.527295
0.8830	3.503284	0.527129
0.8860	3.500339	0.526977
0.8890	3.497432	0.526837
0.8920	3.494561	0.526711
0.8950	3.491726	0.526597
0.8980	3.488926	0.526495
0.9010	3.486159	0.526405
0.9040	3.483426	0.526327
0.9070	3.480724	0.526260
0.9100	3.478053	0.526205
0.9130	3.475412	0.526160
0.9160	3.472801	0.526125
0.9190	3.470219	0.526101
0.9220	3.467664	0.526086
0.9250	3.465136	0.526082
0.9280	3.462635	0.526087
0.9310	3.460160	0.526101
0.9340	3.457709	0.526125
0.9370	3.455283	0.526158
0.9400	3.452881	0.526199
0.9430	3.450502	0.526249
0.9460	3.448146	0.526307
0.9490	3.445812	0.526374
0.9520	3.443500	0.526449
0.9550	3.441208	0.526531
0.9580	3.438937	0.526622
0.9610	3.436686	0.526720
0.9640	3.434455	0.526826
0.9670	3.432242	0.526939
0.9700	3.430048	0.527059
0.9730	3.427872	0.527187
0.9760	3.425714	0.527321
0.9790	3.423573	0.527462
0.9820	3.421449	0.527610
0.9850	3.419342	0.527765
0.9880	3.417250	0.527927
0.9910	3.415174	0.528094
0.9940	3.413114	0.528268
0.9970	3.411069	0.528449
1.0000	3.409038	0.528635
1.0075	3.404022	0.529128
1.0150	3.399091	0.529657
1.0225	3.394239	0.530221
1.0300	3.389462	0.530820
1.0375	3.384756	0.531451
1.0450	3.380116	0.532115
1.0525	3.375540	0.532809
1.0600	3.371023	0.533534
1.0675	3.366562	0.534287
1.0750	3.362155	0.535069
1.0825	3.357797	0.535879
1.0900	3.353487	0.536716
1.0975	3.349221	0.537579
1.1050	3.344998	0.538468
1.1125	3.340814	0.539381
1.1200	3.336668	0.540319
1.1275	3.332556	0.541282
1.1350	3.328479	0.542267
1.1425	3.324432	0.543276
1.1500	3.320415	0.544307
1.1575	3.316425	0.545360
1.1650	3.312462	0.546434
1.1725	3.308523	0.547530
1.1800	3.304606	0.548647
1.1875	3.300711	0.549784
1.1950	3.296836	0.550942
1.2025	3.292979	0.552119
1.2100	3.289140	0.553316
1.2175	3.285317	0.554532
1.2250	3.281509	0.555767
1.2325	3.277714	0.557020
1.2400	3.273932	0.558292
1.2475	3.270162	0.559583
1.2550	3.266402	0.560891
1.2625	3.262652	0.562217
1.2700	3.258911	0.563560
1.2775	3.255178	0.564921
1.2850	3.251451	0.566299
1.2925	3.247731	0.567693
1.3000	3.244017	0.569105
1.3075	3.240307	0.570533
1.3150	3.236600	0.571977
1.3225	3.232898	0.573438
1.3300	3.229197	0.574915
1.3375	3.225498	0.576408
1.3450	3.221801	0.577916
1.3525	3.218104	0.579441
1.3600	3.214408	0.580981
1.3675	3.210711	0.582536
1.3750	3.207012	0.584107
1.3825	3.203312	0.585693
1.3900	3.199610	0.587294
1.3975	3.195905	0.588910
1.4050	3.192198	0.590542
1.4125	3.188487	0.592188
1.4200	3.184771	0.593849
1.4275	3.181051	0.595525
1.4350	3.177326	0.597215
1.4425	3.173597	0.598920
1.4500	3.169861	0.600640
1.4575	3.166119	0.602374
1.4650	3.162371	0.604122
1.4725	3.158616	0.605885
1.4800	3.154854	0.607663
1.4875	3.151084	0.609454
1.4950	3.147306	0.611260
1.5025	3.143520	0.613080
1.5100	3.139726	0.614914
1.5175	3.135923	0.616763
1.5250	3.132111	0.618626
1.5325	3.128289	0.620502
1.5400	3.124458	0.622393
1.5475	3.120617	0.624298
1.5550	3.116766	0.626217
1.5625	3.112904	0.628150
1.5700	3.109031	0.630097
1.5775	3.105148	0.632059
1.5850	3.101253	0.634034
1.5925	3.097347	0.636023
1.6000	3.093430	0.638027
1.6075	3.089500	0.640044
1.6150	3.085558	0.642076
1.6225	3.081604	0.644121
1.6300	3.077637	0.646181
1.6375	3.073658	0.648255
1.6450	3.069666	0.650343
1.6525	3.065660	0.652445
1.6600	3.061642	0.654562
1.6675	3.057610	0.656692
1.6750	3.053564	0.658837
1.6825	3.049504	0.660996
1.6900	3.045431	0.663170
