Material: inorganic / MoS2 / Song-bulk
Optical constants. B. Song, H. Gu, M. Fang, X. Chen, H. Jiang, R. Wang, T. Zhai, Y.-T. Ho, S. Liu. Layer-dependent dielectric function of wafer-scale 2D MoS2, Adv. Optical Mater. 7, 1801250 (2019) (Numerical data kindly provided by Baokun Song)
Comments: Bulk
Specs: {"n_absolute": true, "wavelength_vacuum": true}
wavelength (um)	n	k
0.1930	1.113364	2.166656
0.1960	1.172149	2.265422
0.1990	1.241317	2.336682
0.2020	1.314481	2.386447
0.2050	1.386497	2.418553
0.2080	1.453079	2.436769
0.2110	1.511200	2.445426
0.2140	1.559528	2.449181
0.2170	1.598500	2.452369
0.2200	1.629955	2.458358
0.2230	1.656503	2.469217
0.2260	1.680897	2.485737
0.2290	1.705577	2.507692
0.2320	1.732438	2.534188
0.2350	1.762784	2.563977
0.2380	1.797381	2.595696
0.2410	1.836558	2.628015
0.2440	1.880311	2.659713
0.2470	1.928391	2.689718
0.2500	1.980371	2.717113
0.2530	2.035698	2.741139
0.2560	2.093726	2.761183
0.2590	2.153744	2.776777
0.2620	2.214997	2.787593
0.2650	2.276706	2.793437
0.2680	2.338085	2.794252
0.2710	2.398362	2.790105
0.2740	2.456797	2.781190
0.2770	2.512699	2.767813
0.2800	2.565445	2.750379
0.2830	2.614491	2.729384
0.2860	2.659384	2.705388
0.2890	2.699769	2.679005
0.2920	2.735389	2.650880
0.2950	2.766088	2.621671
0.2980	2.791799	2.592038
0.3010	2.812545	2.562625
0.3040	2.828424	2.534054
0.3070	2.839603	2.506916
0.3100	2.846306	2.481767
0.3130	2.848811	2.459127
0.3160	2.847437	2.439481
0.3190	2.842543	2.423277
0.3220	2.834526	2.410932
0.3250	2.823816	2.402832
0.3280	2.810883	2.399331
0.3310	2.796234	2.400754
0.3340	2.780421	2.407393
0.3370	2.764043	2.419503
0.3400	2.747754	2.437294
0.3430	2.732265	2.460920
0.3460	2.718346	2.490466
0.3490	2.706825	2.525930
0.3520	2.698586	2.567204
0.3550	2.694555	2.614051
0.3580	2.695689	2.666084
0.3610	2.702950	2.722744
0.3640	2.717273	2.783275
0.3670	2.739528	2.846712
0.3700	2.770470	2.911865
0.3730	2.810673	2.977320
0.3760	2.860464	3.041457
0.3790	2.919836	3.102480
0.3820	2.988370	3.158494
0.3850	3.065156	3.207610
0.3880	3.148758	3.248097
0.3910	3.237218	3.278566
0.3940	3.328148	3.298166
0.3970	3.418900	3.306759
0.4000	3.506823	3.305021
0.4030	3.589555	3.294436
0.4060	3.665308	3.277165
0.4090	3.733079	3.255813
0.4120	3.792750	3.233122
0.4150	3.845062	3.211674
0.4180	3.891492	3.193627
0.4210	3.934054	3.180533
0.4240	3.975080	3.173240
0.4270	4.017000	3.171860
0.4300	4.062139	3.175807
0.4330	4.112547	3.183866
0.4360	4.169860	3.194301
0.4390	4.235184	3.204976
0.4420	4.309020	3.213509
0.4450	4.391214	3.217427
0.4480	4.480951	3.214341
0.4510	4.576791	3.202124
0.4540	4.676754	3.179075
0.4570	4.778462	3.144058
0.4600	4.879312	3.096601
0.4630	4.976684	3.036923
0.4660	5.068143	2.965900
0.4690	5.151617	2.884964
0.4720	5.225523	2.795942
0.4750	5.288830	2.700890
0.4780	5.341054	2.601909
0.4810	5.382206	2.501001
0.4840	5.412697	2.399959
0.4870	5.433235	2.300302
0.4900	5.444719	2.203250
0.4930	5.448147	2.109725
0.4960	5.444538	2.020385
0.4990	5.434883	1.935653
0.5020	5.420107	1.855769
0.5050	5.401046	1.780822
0.5080	5.378442	1.710794
0.5110	5.352937	1.645587
0.5140	5.325080	1.585053
0.5170	5.295335	1.529013
0.5200	5.264087	1.477271
0.5230	5.231653	1.429633
0.5260	5.198291	1.385908
0.5290	5.164211	1.345922
0.5320	5.129578	1.309520
0.5350	5.094523	1.276570
0.5380	5.059153	1.246967
0.5410	5.023549	1.220636
0.5440	4.987782	1.197536
0.5470	4.951912	1.177661
0.5500	4.916002	1.161044
0.5530	4.880123	1.147763
0.5560	4.844362	1.137941
0.5590	4.808844	1.131749
0.5620	4.773740	1.129414
0.5650	4.739296	1.131214
0.5680	4.705859	1.137474
0.5710	4.673915	1.148557
0.5740	4.644135	1.164833
0.5770	4.617425	1.186634
0.5800	4.594981	1.214170
0.5830	4.578318	1.247404
0.5860	4.569269	1.285867
0.5890	4.569890	1.328435
0.5920	4.582222	1.373084
0.5950	4.607872	1.416734
0.5980	4.647431	1.455298
0.6010	4.699852	1.484107
0.6040	4.762055	1.498745
0.6070	4.829063	1.496128
0.6100	4.894815	1.475422
0.6130	4.953424	1.438353
0.6160	5.000377	1.388721
0.6190	5.033195	1.331380
0.6220	5.051399	1.271160
0.6250	5.055983	1.212134
0.6280	5.048745	1.157339
0.6310	5.031723	1.108849
0.6340	5.006839	1.068049
0.6370	4.975747	1.035955
0.6400	4.939826	1.013534
0.6430	4.900318	1.002002
0.6460	4.858591	1.003110
0.6490	4.816640	1.019416
0.6520	4.777994	1.054424
0.6550	4.749293	1.112220
0.6580	4.742607	1.195514
0.6610	4.777102	1.300059
0.6640	4.874394	1.404519
0.6670	5.039039	1.465098
0.6700	5.234398	1.438245
0.6730	5.397748	1.324499
0.6760	5.493708	1.169458
0.6790	5.532202	1.017426
0.6820	5.544968	0.883554
0.6850	5.567904	0.721265
0.6880	5.430752	0.582539
0.6910	5.352746	0.531710
0.6940	5.290055	0.491311
0.6970	5.235565	0.459119
0.7000	5.187077	0.433110
0.7030	5.143413	0.411765
0.7060	5.103768	0.393973
0.7090	5.067528	0.378925
0.7120	5.034203	0.366027
0.7150	5.003397	0.354837
0.7180	4.974785	0.345022
0.7210	4.948094	0.336329
0.7240	4.923098	0.328560
0.7270	4.899607	0.321561
0.7300	4.877458	0.315211
0.7330	4.856514	0.309413
0.7360	4.836656	0.304088
0.7390	4.817781	0.299170
0.7420	4.799800	0.294608
0.7450	4.782637	0.290356
0.7480	4.766222	0.286379
0.7510	4.750495	0.282644
0.7540	4.735404	0.279126
0.7570	4.720900	0.275802
0.7600	4.706942	0.272651
0.7630	4.693491	0.269659
0.7660	4.680513	0.266809
0.7690	4.667979	0.264089
0.7720	4.655858	0.261488
0.7750	4.644127	0.258996
0.7780	4.632761	0.256605
0.7810	4.621741	0.254306
0.7840	4.611046	0.252092
0.7870	4.600658	0.249958
0.7900	4.590562	0.247898
0.7930	4.580742	0.245906
0.7960	4.571184	0.243979
0.7990	4.561876	0.242112
0.8020	4.552804	0.240301
0.8050	4.543959	0.238544
0.8080	4.535328	0.236836
0.8110	4.526904	0.235176
0.8140	4.518677	0.233560
0.8170	4.510637	0.231986
0.8200	4.502778	0.230452
0.8230	4.495092	0.228956
0.8260	4.487571	0.227496
0.8290	4.480209	0.226070
0.8320	4.473001	0.224677
0.8350	4.465939	0.223315
0.8380	4.459018	0.221983
0.8410	4.452233	0.220679
0.8440	4.445580	0.219403
0.8470	4.439052	0.218153
0.8500	4.432647	0.216928
0.8530	4.426359	0.215727
0.8560	4.420185	0.214549
0.8590	4.414120	0.213393
0.8620	4.408161	0.212259
0.8650	4.402305	0.211145
0.8680	4.396548	0.210052
0.8710	4.390887	0.208977
0.8740	4.385319	0.207921
0.8770	4.379841	0.206883
0.8800	4.374451	0.205863
0.8830	4.369145	0.204859
0.8860	4.363921	0.203871
0.8890	4.358777	0.202899
0.8920	4.353710	0.201943
0.8950	4.348719	0.201001
0.8980	4.343800	0.200074
0.9010	4.338952	0.199160
0.9040	4.334173	0.198260
0.9070	4.329461	0.197374
0.9100	4.324814	0.196500
0.9130	4.320230	0.195638
0.9160	4.315708	0.194789
0.9190	4.311246	0.193952
0.9220	4.306843	0.193126
0.9250	4.302496	0.192311
0.9280	4.298205	0.191507
0.9310	4.293969	0.190714
0.9340	4.289784	0.189932
0.9370	4.285651	0.189160
0.9400	4.281569	0.188397
0.9430	4.277534	0.187644
0.9460	4.273548	0.186901
0.9490	4.269608	0.186167
0.9520	4.265714	0.185442
0.9550	4.261863	0.184726
0.9580	4.258056	0.184019
0.9610	4.254292	0.183320
0.9640	4.250568	0.182630
0.9670	4.246885	0.181947
0.9700	4.243241	0.181273
0.9730	4.239635	0.180606
0.9760	4.236067	0.179948
0.9790	4.232536	0.179296
0.9820	4.229041	0.178652
0.9850	4.225581	0.178015
0.9880	4.222155	0.177386
0.9910	4.218763	0.176763
0.9940	4.215404	0.176147
0.9970	4.212077	0.175538
1.0000	4.208781	0.174935
1.0075	4.200675	0.173457
1.0150	4.192752	0.172017
1.0225	4.185003	0.170614
1.0300	4.177417	0.169246
1.0375	4.169988	0.167912
1.0450	4.162708	0.166611
1.0525	4.155569	0.165342
1.0600	4.148564	0.164103
1.0675	4.141687	0.162892
1.0750	4.134933	0.161710
1.0825	4.128295	0.160555
1.0900	4.121768	0.159425
1.0975	4.115346	0.158321
1.1050	4.109026	0.157242
1.1125	4.102803	0.156186
1.1200	4.096672	0.155152
1.1275	4.090628	0.154141
1.1350	4.084669	0.153151
1.1425	4.078790	0.152182
1.1500	4.072988	0.151233
1.1575	4.067260	0.150303
1.1650	4.061602	0.149392
1.1725	4.056011	0.148500
1.1800	4.050485	0.147625
1.1875	4.045020	0.146768
1.1950	4.039614	0.145927
1.2025	4.034264	0.145103
1.2100	4.028969	0.144295
1.2175	4.023725	0.143503
1.2250	4.018530	0.142725
1.2325	4.013382	0.141962
1.2400	4.008280	0.141214
1.2475	4.003222	0.140480
1.2550	3.998204	0.139759
1.2625	3.993226	0.139051
1.2700	3.988286	0.138357
1.2775	3.983382	0.137675
1.2850	3.978513	0.137006
1.2925	3.973676	0.136348
1.3000	3.968871	0.135703
1.3075	3.964097	0.135069
1.3150	3.959351	0.134446
1.3225	3.954632	0.133834
1.3300	3.949939	0.133233
1.3375	3.945272	0.132643
1.3450	3.940628	0.132063
1.3525	3.936007	0.131493
1.3600	3.931407	0.130933
1.3675	3.926827	0.130382
1.3750	3.922267	0.129841
1.3825	3.917726	0.129310
1.3900	3.913201	0.128787
1.3975	3.908693	0.128273
1.4050	3.904201	0.127768
1.4125	3.899723	0.127272
1.4200	3.895259	0.126784
1.4275	3.890808	0.126304
1.4350	3.886369	0.125832
1.4425	3.881942	0.125369
1.4500	3.877525	0.124913
1.4575	3.873118	0.124464
1.4650	3.868721	0.124023
1.4725	3.864332	0.123590
1.4800	3.859951	0.123164
1.4875	3.855577	0.122745
1.4950	3.851210	0.122332
1.5025	3.846848	0.121927
1.5100	3.842493	0.121528
1.5175	3.838142	0.121136
1.5250	3.833795	0.120751
1.5325	3.829452	0.120372
1.5400	3.825112	0.119999
1.5475	3.820775	0.119633
1.5550	3.816440	0.119272
1.5625	3.812107	0.118918
1.5700	3.807775	0.118569
1.5775	3.803443	0.118226
1.5850	3.799113	0.117889
1.5925	3.794781	0.117558
1.6000	3.790449	0.117232
1.6075	3.786117	0.116911
1.6150	3.781782	0.116596
1.6225	3.777446	0.116287
1.6300	3.773108	0.115982
1.6375	3.768767	0.115683
1.6450	3.764423	0.115389
1.6525	3.760076	0.115099
1.6600	3.755725	0.114815
1.6675	3.751369	0.114535
1.6750	3.747010	0.114261
1.6825	3.742646	0.113991
1.6900	3.738276	0.113725
