Material: organic / C6H3Cl3 - trichlorobenzene / Myers
Optical constants. T. L. Myers, R. G. Tonkyn, T. O. Danby, M. S. Taubman, B. E. Bernacki, J. C. Birnbaum, S. W. Sharpe, T. J. Johnson. Accurate measurement of the optical constants n and k for a series of 57 inorganic and organic liquids for optical modeling and detection, Appl. Spectrosc. 72, 535-550 (2018) (see Supplemental Material for numerical data)
Comments: 1,2,4-Trichlorobenzene, 26 Â°C
Specs: {"n_absolute": true, "wavelength_vacuum": true, "temperature": "26 Â°C"}
wavelength (um)	n	k
1.28244E+00	1.54749E+00	3.05635E-06
1.28554E+00	1.54749E+00	2.98281E-06
1.28866E+00	1.54749E+00	2.90663E-06
1.29179E+00	1.54749E+00	2.93846E-06
1.29493E+00	1.54749E+00	3.04483E-06
1.29809E+00	1.54749E+00	2.93031E-06
1.30127E+00	1.54749E+00	2.93008E-06
1.30446E+00	1.54748E+00	2.95359E-06
1.30767E+00	1.54748E+00	3.07876E-06
1.31089E+00	1.54748E+00	2.97623E-06
1.31413E+00	1.54748E+00	2.77249E-06
1.31739E+00	1.54748E+00	2.91345E-06
1.32066E+00	1.54748E+00	2.72381E-06
1.32395E+00	1.54747E+00	2.84100E-06
1.32725E+00	1.54747E+00	3.02498E-06
1.33057E+00	1.54747E+00	2.95108E-06
1.33391E+00	1.54747E+00	2.66915E-06
1.33726E+00	1.54747E+00	2.89851E-06
1.34063E+00	1.54747E+00	2.84747E-06
1.34402E+00	1.54746E+00	2.85777E-06
1.34743E+00	1.54746E+00	2.91730E-06
1.35085E+00	1.54746E+00	2.77688E-06
1.35429E+00	1.54746E+00	2.84913E-06
1.35775E+00	1.54746E+00	2.71585E-06
1.36122E+00	1.54746E+00	2.67442E-06
1.36471E+00	1.54745E+00	2.71344E-06
1.36823E+00	1.54745E+00	2.79446E-06
1.37176E+00	1.54745E+00	2.83632E-06
1.37530E+00	1.54745E+00	2.74425E-06
1.37887E+00	1.54745E+00	2.69278E-06
1.38245E+00	1.54744E+00	2.73703E-06
1.38606E+00	1.54744E+00	2.66808E-06
1.38968E+00	1.54744E+00	2.72140E-06
1.39332E+00	1.54744E+00	2.70486E-06
1.39698E+00	1.54744E+00	2.70710E-06
1.40066E+00	1.54744E+00	2.76734E-06
1.40436E+00	1.54743E+00	2.57466E-06
1.40807E+00	1.54743E+00	2.58709E-06
1.41181E+00	1.54743E+00	2.69303E-06
1.41557E+00	1.54743E+00	2.72561E-06
1.41935E+00	1.54742E+00	2.72888E-06
1.42315E+00	1.54742E+00	2.37763E-06
1.42697E+00	1.54742E+00	2.49887E-06
1.43080E+00	1.54742E+00	2.45333E-06
1.43466E+00	1.54742E+00	2.47256E-06
1.43854E+00	1.54741E+00	2.60584E-06
1.44245E+00	1.54741E+00	2.38465E-06
1.44637E+00	1.54741E+00	2.42773E-06
1.45031E+00	1.54741E+00	2.70488E-06
1.45428E+00	1.54740E+00	3.00150E-06
1.45827E+00	1.54740E+00	2.92285E-06
1.46228E+00	1.54740E+00	2.99632E-06
1.46631E+00	1.54740E+00	2.99086E-06
1.47036E+00	1.54740E+00	2.73206E-06
1.47444E+00	1.54739E+00	2.58675E-06
1.47854E+00	1.54739E+00	2.46460E-06
1.48266E+00	1.54739E+00	2.36116E-06
1.48681E+00	1.54739E+00	2.31809E-06
1.49097E+00	1.54738E+00	2.62068E-06
1.49517E+00	1.54738E+00	2.39032E-06
1.49938E+00	1.54738E+00	2.11924E-06
1.50362E+00	1.54738E+00	1.91524E-06
1.50788E+00	1.54737E+00	1.71400E-06
1.51217E+00	1.54737E+00	1.60777E-06
1.51648E+00	1.54737E+00	1.71075E-06
1.52082E+00	1.54736E+00	1.58677E-06
1.52518E+00	1.54736E+00	1.53676E-06
1.52957E+00	1.54736E+00	1.43125E-06
1.53398E+00	1.54736E+00	1.39267E-06
1.53842E+00	1.54735E+00	1.47829E-06
1.54288E+00	1.54735E+00	1.69718E-06
1.54737E+00	1.54735E+00	1.50297E-06
1.55189E+00	1.54734E+00	1.20515E-06
1.55643E+00	1.54734E+00	9.28323E-07
1.56100E+00	1.54734E+00	7.76187E-07
1.56559E+00	1.54733E+00	8.10989E-07
1.57021E+00	1.54733E+00	7.96357E-07
1.57486E+00	1.54733E+00	8.25936E-07
1.57954E+00	1.54732E+00	8.32062E-07
1.58425E+00	1.54732E+00	7.24959E-07
1.58898E+00	1.54731E+00	7.88374E-07
1.59374E+00	1.54731E+00	8.88946E-07
1.59853E+00	1.54730E+00	1.44500E-06
1.60335E+00	1.54730E+00	2.11252E-06
1.60820E+00	1.54730E+00	1.74837E-06
1.61308E+00	1.54729E+00	2.14138E-06
1.61798E+00	1.54728E+00	2.13725E-06
1.62292E+00	1.54728E+00	4.16057E-06
1.62789E+00	1.54727E+00	5.40386E-06
1.63289E+00	1.54726E+00	6.48893E-06
1.63792E+00	1.54724E+00	1.63974E-05
1.64298E+00	1.54724E+00	4.63905E-05
1.64807E+00	1.54724E+00	3.48254E-05
1.65319E+00	1.54721E+00	6.57828E-05
1.65835E+00	1.54723E+00	1.27584E-04
1.66353E+00	1.54732E+00	1.15059E-04
1.66875E+00	1.54733E+00	8.64436E-05
1.67401E+00	1.54734E+00	5.65383E-05
1.67929E+00	1.54733E+00	2.45251E-05
1.68461E+00	1.54731E+00	1.19615E-05
1.68997E+00	1.54729E+00	8.80290E-06
1.69535E+00	1.54728E+00	1.46305E-05
1.70077E+00	1.54729E+00	1.32673E-05
1.70623E+00	1.54728E+00	5.57810E-06
1.71172E+00	1.54727E+00	3.13828E-06
1.71725E+00	1.54726E+00	4.13447E-06
1.72281E+00	1.54725E+00	6.57160E-06
1.72841E+00	1.54725E+00	6.44290E-06
1.73405E+00	1.54724E+00	7.86524E-06
1.73972E+00	1.54724E+00	9.32481E-06
1.74543E+00	1.54724E+00	5.72300E-06
1.75118E+00	1.54723E+00	5.51754E-06
1.75696E+00	1.54723E+00	4.78049E-06
1.76279E+00	1.54722E+00	4.81553E-06
1.76865E+00	1.54722E+00	4.32776E-06
1.77455E+00	1.54721E+00	1.67528E-06
1.78049E+00	1.54721E+00	7.56451E-07
1.78647E+00	1.54720E+00	1.85307E-06
1.79249E+00	1.54720E+00	4.66001E-06
1.79856E+00	1.54719E+00	5.66130E-06
1.80466E+00	1.54719E+00	4.84713E-06
1.81080E+00	1.54718E+00	3.70968E-06
1.81699E+00	1.54718E+00	3.65065E-06
1.82322E+00	1.54717E+00	3.86233E-06
1.82949E+00	1.54717E+00	4.31726E-06
1.83581E+00	1.54717E+00	4.08071E-06
1.84217E+00	1.54716E+00	2.71786E-06
1.84857E+00	1.54715E+00	1.33694E-06
1.85502E+00	1.54715E+00	1.01902E-06
1.86151E+00	1.54714E+00	2.17788E-06
1.86805E+00	1.54714E+00	2.48422E-06
1.87463E+00	1.54713E+00	2.84487E-06
1.88127E+00	1.54713E+00	1.66785E-06
1.88794E+00	1.54712E+00	1.92150E-06
1.89467E+00	1.54711E+00	2.12265E-06
1.90144E+00	1.54711E+00	1.98913E-06
1.90827E+00	1.54710E+00	1.81218E-06
1.91514E+00	1.54710E+00	1.51191E-06
1.92206E+00	1.54709E+00	1.17497E-06
1.92903E+00	1.54708E+00	1.21684E-06
1.93606E+00	1.54708E+00	1.32087E-06
1.94313E+00	1.54707E+00	1.79709E-06
1.95025E+00	1.54707E+00	1.92425E-06
1.95743E+00	1.54706E+00	1.42303E-06
1.96466E+00	1.54705E+00	1.42293E-06
1.97195E+00	1.54705E+00	1.40200E-06
1.97929E+00	1.54704E+00	8.75020E-07
1.98668E+00	1.54703E+00	6.28682E-07
1.99413E+00	1.54702E+00	6.31222E-07
2.00164E+00	1.54702E+00	1.00132E-06
2.00920E+00	1.54701E+00	1.59181E-06
2.01682E+00	1.54700E+00	1.92938E-06
2.02450E+00	1.54699E+00	1.70478E-06
2.03223E+00	1.54699E+00	1.47020E-06
2.04003E+00	1.54698E+00	1.68672E-06
2.04788E+00	1.54697E+00	1.27607E-06
2.05580E+00	1.54696E+00	1.10522E-06
2.06378E+00	1.54695E+00	1.18025E-06
2.07182E+00	1.54694E+00	2.38180E-06
2.07992E+00	1.54693E+00	3.94735E-06
2.08809E+00	1.54692E+00	3.40751E-06
2.09632E+00	1.54691E+00	2.07416E-06
2.10461E+00	1.54689E+00	4.13580E-06
2.11298E+00	1.54687E+00	5.42654E-06
2.12140E+00	1.54685E+00	1.61325E-05
2.12990E+00	1.54684E+00	2.23627E-05
2.13846E+00	1.54680E+00	4.46675E-05
2.14710E+00	1.54674E+00	1.09382E-04
2.15580E+00	1.54696E+00	2.82254E-04
2.16458E+00	1.54699E+00	7.52732E-05
2.17342E+00	1.54692E+00	2.01796E-05
2.18234E+00	1.54687E+00	2.87280E-05
2.19133E+00	1.54688E+00	6.06329E-05
2.20040E+00	1.54688E+00	3.67818E-05
2.20954E+00	1.54687E+00	3.75304E-05
2.21876E+00	1.54685E+00	1.01549E-05
2.22806E+00	1.54683E+00	1.00007E-05
2.23743E+00	1.54680E+00	1.40842E-05
2.24688E+00	1.54679E+00	3.38528E-05
2.25642E+00	1.54680E+00	1.68871E-05
2.26603E+00	1.54678E+00	6.15888E-06
2.27573E+00	1.54675E+00	8.07766E-06
2.28551E+00	1.54674E+00	1.41118E-05
2.29537E+00	1.54671E+00	1.77863E-05
2.30532E+00	1.54669E+00	3.85495E-05
2.31536E+00	1.54673E+00	6.70814E-05
2.32548E+00	1.54671E+00	2.11511E-05
2.33570E+00	1.54667E+00	1.27475E-05
2.34600E+00	1.54664E+00	2.06721E-05
2.35639E+00	1.54660E+00	5.00637E-05
2.36688E+00	1.54659E+00	8.06472E-05
2.37746E+00	1.54659E+00	1.01699E-04
2.38814E+00	1.54658E+00	9.15886E-05
2.39891E+00	1.54651E+00	1.77419E-04
2.40978E+00	1.54667E+00	1.23834E-04
2.42075E+00	1.54654E+00	7.35982E-05
2.43182E+00	1.54633E+00	2.66783E-04
2.44299E+00	1.54703E+00	3.26332E-04
2.45426E+00	1.54679E+00	4.45209E-05
2.46564E+00	1.54668E+00	2.45689E-05
2.47713E+00	1.54663E+00	3.32354E-05
2.48872E+00	1.54658E+00	5.06294E-05
2.50042E+00	1.54660E+00	4.84827E-05
2.51223E+00	1.54654E+00	2.48594E-05
2.52416E+00	1.54648E+00	5.28646E-05
2.53619E+00	1.54648E+00	1.16845E-04
2.54835E+00	1.54653E+00	1.02841E-04
2.56062E+00	1.54644E+00	1.02366E-04
2.57300E+00	1.54651E+00	2.55884E-04
2.58551E+00	1.54661E+00	6.59324E-05
2.59814E+00	1.54652E+00	1.70555E-05
2.61090E+00	1.54646E+00	1.71135E-05
2.62378E+00	1.54642E+00	1.52872E-05
2.63679E+00	1.54636E+00	2.04444E-05
2.64993E+00	1.54623E+00	1.25349E-04
2.66320E+00	1.54655E+00	1.39060E-04
2.67660E+00	1.54645E+00	3.57481E-05
2.69014E+00	1.54638E+00	1.27830E-05
2.70382E+00	1.54632E+00	2.17422E-05
2.71764E+00	1.54636E+00	7.05025E-05
2.73159E+00	1.54629E+00	1.74794E-05
2.74570E+00	1.54628E+00	6.68202E-05
2.75995E+00	1.54626E+00	1.71381E-05
2.77434E+00	1.54622E+00	1.15231E-05
2.78889E+00	1.54619E+00	1.29442E-05
2.80359E+00	1.54615E+00	1.16353E-05
2.81845E+00	1.54611E+00	2.24179E-05
2.83347E+00	1.54610E+00	5.23645E-05
2.84865E+00	1.54608E+00	3.27308E-05
2.86399E+00	1.54605E+00	2.59788E-05
2.87949E+00	1.54602E+00	3.04940E-05
2.89517E+00	1.54599E+00	1.34441E-05
2.91102E+00	1.54594E+00	1.41688E-05
2.92704E+00	1.54590E+00	2.33601E-05
2.94324E+00	1.54587E+00	2.47730E-05
2.95962E+00	1.54582E+00	2.16957E-05
2.97618E+00	1.54577E+00	1.60799E-05
2.99293E+00	1.54571E+00	2.20747E-05
3.00987E+00	1.54565E+00	3.80781E-05
3.02700E+00	1.54560E+00	5.06120E-05
3.04433E+00	1.54554E+00	5.64845E-05
3.06185E+00	1.54547E+00	5.53610E-05
3.07958E+00	1.54537E+00	5.05684E-05
3.09752E+00	1.54524E+00	7.48926E-05
3.11567E+00	1.54509E+00	1.30216E-04
3.13403E+00	1.54494E+00	1.98960E-04
3.15261E+00	1.54471E+00	2.99374E-04
3.17141E+00	1.54443E+00	5.80890E-04
3.19043E+00	1.54430E+00	9.71462E-04
3.20969E+00	1.54388E+00	1.36720E-03
3.22918E+00	1.54254E+00	3.70691E-03
3.24891E+00	1.54817E+00	2.91922E-03
3.26888E+00	1.54814E+00	9.51722E-04
3.28909E+00	1.54697E+00	3.49387E-04
3.30956E+00	1.54633E+00	3.52063E-04
3.33028E+00	1.54701E+00	5.84610E-04
3.35127E+00	1.54643E+00	1.36301E-04
3.37252E+00	1.54611E+00	1.25915E-04
3.39405E+00	1.54597E+00	1.81716E-04
3.41585E+00	1.54600E+00	2.87400E-04
3.43793E+00	1.54595E+00	9.27800E-05
3.46030E+00	1.54576E+00	2.12810E-05
3.48296E+00	1.54562E+00	2.69942E-05
3.50592E+00	1.54544E+00	3.58717E-05
3.52919E+00	1.54513E+00	1.28996E-04
3.55276E+00	1.54529E+00	9.84525E-04
3.57666E+00	1.54590E+00	3.11817E-04
3.60087E+00	1.54562E+00	4.60165E-05
3.62542E+00	1.54538E+00	1.73624E-05
3.65030E+00	1.54519E+00	4.16185E-05
3.67553E+00	1.54498E+00	1.09220E-04
3.70111E+00	1.54460E+00	6.72886E-04
3.72705E+00	1.54538E+00	1.80903E-04
3.75335E+00	1.54505E+00	2.76227E-04
3.78003E+00	1.54517E+00	1.97046E-04
3.80709E+00	1.54505E+00	1.71337E-04
3.83454E+00	1.54496E+00	1.70450E-04
3.86239E+00	1.54497E+00	1.43789E-04
3.89065E+00	1.54485E+00	3.66002E-05
3.91932E+00	1.54469E+00	3.66303E-05
3.94842E+00	1.54449E+00	1.01832E-04
3.97795E+00	1.54453E+00	3.26269E-04
4.00793E+00	1.54460E+00	1.13995E-04
4.03836E+00	1.54448E+00	6.99830E-05
4.06926E+00	1.54434E+00	2.01920E-05
4.10064E+00	1.54418E+00	1.93474E-05
4.13251E+00	1.54400E+00	9.24365E-05
4.16487E+00	1.54396E+00	1.91094E-04
4.19774E+00	1.54392E+00	2.16293E-04
4.23114E+00	1.54379E+00	2.47936E-04
4.26507E+00	1.54361E+00	4.19532E-04
4.29955E+00	1.54403E+00	1.05366E-04
4.33460E+00	1.54356E+00	2.84079E-05
4.37022E+00	1.54326E+00	4.30465E-04
4.40643E+00	1.54368E+00	3.35111E-04
4.44324E+00	1.54343E+00	7.73835E-05
4.48068E+00	1.54332E+00	9.00189E-05
4.51875E+00	1.54309E+00	1.92602E-05
4.55747E+00	1.54285E+00	8.51792E-05
4.59687E+00	1.54280E+00	1.81000E-04
4.63695E+00	1.54262E+00	5.06805E-05
4.67773E+00	1.54224E+00	1.96553E-04
4.71924E+00	1.54245E+00	4.31790E-05
4.76149E+00	1.54215E+00	8.30309E-06
4.80451E+00	1.54191E+00	2.88329E-05
4.84831E+00	1.54166E+00	6.71044E-05
4.89292E+00	1.54151E+00	2.78840E-05
4.93835E+00	1.54128E+00	4.02378E-05
4.98464E+00	1.54097E+00	1.19566E-05
5.03180E+00	1.54062E+00	2.04179E-05
5.07986E+00	1.54027E+00	1.43573E-04
5.12885E+00	1.54008E+00	1.61769E-04
5.17880E+00	1.53959E+00	1.06969E-04
5.22972E+00	1.53872E+00	3.18604E-04
5.28166E+00	1.53746E+00	2.06741E-03
5.33464E+00	1.54102E+00	1.52325E-03
5.38870E+00	1.53939E+00	1.81999E-04
5.44386E+00	1.53829E+00	2.28174E-04
5.50016E+00	1.53769E+00	7.06575E-04
5.55764E+00	1.53736E+00	2.37626E-04
5.61633E+00	1.53558E+00	4.02931E-04
5.67627E+00	1.53433E+00	2.05654E-03
5.73751E+00	1.53576E+00	4.15141E-03
5.80009E+00	1.53804E+00	2.40818E-03
5.86404E+00	1.53608E+00	6.78875E-04
5.92942E+00	1.53432E+00	4.86753E-04
5.99628E+00	1.53275E+00	9.25771E-04
6.06466E+00	1.53057E+00	4.71954E-04
6.13461E+00	1.52771E+00	2.36387E-03
6.20620E+00	1.52655E+00	1.88604E-03
6.27948E+00	1.51847E+00	2.87378E-03
6.35451E+00	1.50117E+00	3.35224E-02
6.43136E+00	1.55285E+00	1.76514E-02
6.51009E+00	1.53370E+00	8.18031E-04
6.59077E+00	1.52192E+00	4.45434E-04
6.67347E+00	1.50506E+00	8.31413E-03
6.75828E+00	1.48857E+00	3.66143E-03
6.84526E+00	1.25374E+00	2.00929E-01
6.93452E+00	1.61513E+00	1.07761E-02
7.02614E+00	1.55771E+00	2.01117E-02
7.12021E+00	1.56224E+00	2.90731E-03
7.21683E+00	1.53459E+00	2.28598E-02
7.31611E+00	1.58071E+00	2.77481E-02
7.41816E+00	1.56944E+00	3.52890E-03
7.52310E+00	1.55730E+00	3.61039E-04
7.63105E+00	1.55099E+00	2.85540E-04
7.74214E+00	1.54591E+00	2.06274E-04
7.85651E+00	1.53946E+00	1.63363E-03
7.97432E+00	1.53364E+00	7.11011E-03
8.09571E+00	1.55237E+00	6.50011E-03
8.22085E+00	1.54084E+00	6.03754E-04
8.34992E+00	1.53382E+00	3.65554E-04
8.48311E+00	1.52510E+00	3.25179E-03
8.62062E+00	1.50762E+00	1.14121E-02
8.76266E+00	1.51481E+00	3.66878E-02
8.90946E+00	1.53761E+00	7.42043E-02
9.06127E+00	1.46190E+00	5.19054E-02
9.21833E+00	1.63091E+00	1.03949E-02
9.38094E+00	1.56429E+00	2.15253E-03
9.54938E+00	1.52553E+00	5.27113E-03
9.72399E+00	1.63945E+00	2.91567E-02
9.90510E+00	1.57717E+00	2.41457E-03
1.00931E+01	1.56358E+00	1.80462E-03
1.02883E+01	1.55605E+00	3.71358E-04
1.04913E+01	1.54810E+00	1.43805E-03
1.07024E+01	1.54601E+00	1.34431E-03
1.09222E+01	1.53687E+00	5.39326E-04
1.11512E+01	1.52324E+00	1.28934E-03
1.13901E+01	1.47701E+00	2.01603E-02
1.16394E+01	1.58125E+00	2.61487E-02
1.18998E+01	1.51668E+00	4.87073E-03
1.21722E+01	1.36615E+00	7.05116E-02
1.24573E+01	1.73708E+00	5.73772E-02
1.27561E+01	1.62074E+00	4.92189E-03
1.30696E+01	1.59343E+00	1.85278E-03
1.33988E+01	1.58069E+00	2.69430E-03
1.37451E+01	1.57348E+00	1.04217E-03
1.41098E+01	1.56463E+00	4.43176E-04
1.44944E+01	1.54427E+00	4.92602E-03
1.49005E+01	1.59087E+00	7.06797E-03
1.53300E+01	1.56642E+00	3.37060E-04
1.57850E+01	1.55711E+00	3.50809E-04
1.62679E+01	1.54699E+00	1.62313E-03
1.67812E+01	1.52565E+00	1.91213E-03
1.73280E+01	1.35573E+00	2.07584E-01
1.79116E+01	1.58576E+00	1.12567E-02
1.85358E+01	1.61289E+00	3.80853E-03
1.92052E+01	1.58594E+00	1.41461E-03
1.99247E+01	1.57683E+00	9.77271E-04
2.07003E+01	1.56851E+00	1.78143E-03
2.15387E+01	1.54813E+00	2.87659E-03
2.24478E+01	1.52901E+00	1.67527E-02
2.34371E+01	1.60485E+00	3.50729E-03
2.45175E+01	1.58217E+00	3.95866E-03
