Material: inorganic / Al / Cheng
Optical constants. F. Cheng, P.-H. Su, J. Choi, S. Gwo, X. Li, C.-K. Shih. Epitaxial growth of atomically smooth aluminum on silicon and its intrinsic optical properties, ACS Nano 10, 9852-9860 (2016)(see supporting information for numerical data)
Comments: Epitaxially grown Al film, dielectric constants for room temperature
wavelength (um)	n	k
0.22543	0.12397	1.99044
0.22625	0.12466	1.99963
0.22708	0.12534	2.00883
0.22791	0.12603	2.01806
0.22875	0.12673	2.02733
0.22960	0.12743	2.03667
0.23045	0.12814	2.04605
0.23131	0.12885	2.05553
0.23218	0.12958	2.06504
0.23305	0.13031	2.07460
0.23393	0.13105	2.08427
0.23482	0.13180	2.09396
0.23571	0.13256	2.10373
0.23661	0.13332	2.11355
0.23752	0.13410	2.12346
0.23843	0.13488	2.13342
0.23935	0.13567	2.14346
0.24028	0.13647	2.15354
0.24121	0.13728	2.16369
0.24216	0.13810	2.17393
0.24311	0.13892	2.18424
0.24406	0.13976	2.19461
0.24503	0.14061	2.20506
0.24600	0.14146	2.21554
0.24698	0.14233	2.22615
0.24797	0.14320	2.23681
0.24896	0.14409	2.24755
0.24997	0.14498	2.25839
0.25098	0.14589	2.26927
0.25200	0.14680	2.28021
0.25303	0.14773	2.29125
0.25407	0.14867	2.30237
0.25511	0.14962	2.31361
0.25617	0.15058	2.32488
0.25723	0.15155	2.33623
0.25830	0.15253	2.34769
0.25938	0.15353	2.35925
0.26047	0.15453	2.37088
0.26157	0.15555	2.38258
0.26268	0.15658	2.39439
0.26380	0.15763	2.40627
0.26492	0.15868	2.41826
0.26606	0.15975	2.43031
0.26721	0.16083	2.44245
0.26836	0.16193	2.45471
0.26953	0.16304	2.46708
0.27071	0.16416	2.47955
0.27190	0.16530	2.49209
0.27309	0.16645	2.50472
0.27430	0.16762	2.51750
0.27552	0.16880	2.53033
0.27675	0.17000	2.54327
0.27799	0.17121	2.55635
0.27924	0.17243	2.56948
0.28051	0.17367	2.58274
0.28178	0.17493	2.59613
0.28307	0.17621	2.60965
0.28437	0.17750	2.62324
0.28568	0.17881	2.63691
0.28700	0.18014	2.65076
0.28834	0.18148	2.66472
0.28968	0.18284	2.67876
0.29104	0.18422	2.69292
0.29242	0.18563	2.70726
0.29380	0.18704	2.72163
0.29520	0.18849	2.73624
0.29661	0.18994	2.75089
0.29804	0.19142	2.76569
0.29948	0.19290	2.78065
0.30093	0.19442	2.79571
0.30240	0.19597	2.81091
0.30388	0.19754	2.82629
0.30538	0.19912	2.84173
0.30689	0.20073	2.85732
0.30842	0.20236	2.87311
0.30996	0.20401	2.88902
0.31152	0.20569	2.90508
0.31309	0.20739	2.92127
0.31468	0.20911	2.93762
0.31629	0.21088	2.95411
0.31791	0.21264	2.97076
0.31955	0.21446	2.98757
0.32120	0.21629	3.00456
0.32288	0.21815	3.02172
0.32457	0.22004	3.03905
0.32627	0.22197	3.05655
0.32800	0.22391	3.07419
0.32975	0.22590	3.09206
0.33151	0.22791	3.11005
0.33329	0.22994	3.12822
0.33509	0.23202	3.14656
0.33691	0.23413	3.16511
0.33875	0.23627	3.18384
0.34062	0.23845	3.20279
0.34250	0.24066	3.22194
0.34440	0.24291	3.24130
0.34632	0.24521	3.26069
0.34827	0.24753	3.28044
0.35024	0.24990	3.30052
0.35223	0.25230	3.32064
0.35424	0.25475	3.34094
0.35628	0.25725	3.36157
0.35834	0.25979	3.38238
0.36042	0.26236	3.40336
0.36253	0.26499	3.42465
0.36466	0.26766	3.44611
0.36682	0.27038	3.46787
0.36900	0.27314	3.48993
0.37121	0.27597	3.51214
0.37345	0.27884	3.53465
0.37571	0.28178	3.55744
0.37800	0.28476	3.58038
0.38032	0.28780	3.60372
0.38267	0.29090	3.62721
0.38504	0.29406	3.65109
0.38745	0.29729	3.67524
0.38989	0.30058	3.69951
0.39236	0.30393	3.72416
0.39485	0.30735	3.74919
0.39739	0.31085	3.77447
0.39995	0.31441	3.79998
0.40255	0.31806	3.82599
0.40518	0.32176	3.85221
0.40784	0.32557	3.87879
0.41054	0.32944	3.90558
0.41328	0.33341	3.93283
0.41605	0.33748	3.96054
0.41887	0.34161	3.98845
0.42171	0.34587	4.01679
0.42460	0.35020	4.04557
0.42753	0.35464	4.07453
0.43050	0.35918	4.10390
0.43351	0.36383	4.13381
0.43656	0.36860	4.16400
0.43966	0.37350	4.19470
0.44280	0.37850	4.22579
0.44599	0.38364	4.25725
0.44922	0.38890	4.28920
0.45250	0.39430	4.32163
0.45582	0.39984	4.35441
0.45920	0.40554	4.38776
0.46263	0.41138	4.42156
0.46611	0.41739	4.45569
0.46964	0.42359	4.49059
0.47322	0.42992	4.52580
0.47686	0.43647	4.56163
0.48056	0.44322	4.59798
0.48431	0.45015	4.63494
0.48813	0.45732	4.67238
0.49200	0.46467	4.71030
0.49594	0.47228	4.74890
0.49994	0.48011	4.78806
0.50400	0.48824	4.82787
0.50813	0.49664	4.86833
0.51233	0.50530	4.90941
0.51660	0.51427	4.95111
0.52094	0.52355	4.99351
0.52536	0.53318	5.03659
0.52985	0.54318	5.08036
0.53441	0.55355	5.12479
0.53906	0.56435	5.17015
0.54379	0.57555	5.21606
0.54860	0.58716	5.26268
0.55350	0.59929	5.31010
0.55849	0.61196	5.35840
0.56356	0.62519	5.40757
0.56873	0.63899	5.45750
0.57400	0.65342	5.50817
0.57937	0.66851	5.55976
0.58483	0.68435	5.61207
0.59040	0.70096	5.66536
0.59608	0.71845	5.71954
0.60187	0.73677	5.77450
0.60777	0.75612	5.83024
0.61378	0.77657	5.88711
0.61992	0.79815	5.94467
0.62618	0.82099	6.00308
0.63257	0.84522	6.06229
0.63909	0.87086	6.12212
0.64575	0.89815	6.18269
0.65255	0.92723	6.24386
0.65949	0.95827	6.30565
0.66658	0.99142	6.36765
0.67383	1.02678	6.42980
0.68123	1.06475	6.49213
0.68880	1.10544	6.55393
0.69654	1.14916	6.61525
0.70446	1.19586	6.67511
0.71255	1.24623	6.73351
0.72084	1.30012	6.78935
0.72932	1.35763	6.84172
0.73800	1.41881	6.88956
0.74689	1.48310	6.93142
0.75600	1.55061	6.96595
0.76533	1.61955	6.99085
0.77490	1.68859	7.00438
0.78471	1.75427	7.00432
0.79477	1.81296	6.98941
0.80509	1.85909	6.95904
0.81569	1.88587	6.91538
0.82656	1.88656	6.86302
0.83773	1.85601	6.81056
0.84921	1.79304	6.76979
0.86100	1.70258	6.75239
0.87313	1.59457	6.76703
0.88560	1.48243	6.81583
0.89844	1.37779	6.89437
0.91165	1.28752	6.99369
0.92526	1.21266	7.10504
0.93927	1.15085	7.22077
0.95372	1.09684	7.33792
0.96863	1.04652	7.45468
0.98400	0.99637	7.57296
0.99987	0.94528	7.69295
