Material: inorganic / InP / Panah
Optical constants. M. E. A. Panah, O. Takayama, S. V. Morozov, K. E. Kudryavtsev, E. S. Semenova, A. V. Lavrinenko. Highly doped InP as a low loss plasmonic material for mid-IR region, Opt. Express 24, 29077-29088 (2016) (Numerical data kindly provided by Osamu Takayama)
Comments: Undoped indium phosphide (InP) substrate.
Specs: {"n_absolute": true, "wavelength_vacuum": true}
wavelength (um)	n	k
5.00	2.948824	0.004871
5.07	2.944735	0.005086
5.14	2.940582	0.005307
5.21	2.936367	0.005534
5.28	2.932088	0.005768
5.35	2.927746	0.006010
5.42	2.923340	0.006258
5.49	2.918869	0.006513
5.56	2.914335	0.006776
5.63	2.909735	0.007046
5.70	2.905070	0.007323
5.77	2.900340	0.007608
5.84	2.895544	0.007901
5.91	2.890682	0.008202
5.98	2.885754	0.008511
6.05	2.880759	0.008829
6.12	2.875697	0.009155
6.19	2.870567	0.009489
6.26	2.865370	0.009832
6.33	2.860104	0.010184
6.40	2.854770	0.010544
6.47	2.849367	0.010914
6.54	2.843894	0.011294
6.61	2.838351	0.011682
6.68	2.832739	0.012081
6.75	2.827056	0.012489
6.82	2.821301	0.012907
6.89	2.815475	0.013336
6.96	2.809578	0.013775
7.03	2.803607	0.014224
7.10	2.797564	0.014684
7.17	2.791448	0.015155
7.24	2.785258	0.015637
7.31	2.778993	0.016131
7.38	2.772654	0.016636
7.45	2.766239	0.017152
7.52	2.759748	0.017681
7.59	2.753181	0.018222
7.66	2.746536	0.018775
7.73	2.739815	0.019341
7.80	2.733015	0.019919
7.87	2.726136	0.020511
7.94	2.719178	0.021116
8.01	2.712140	0.021734
8.08	2.705021	0.022367
8.15	2.697822	0.023013
8.22	2.690540	0.023674
8.29	2.683176	0.024349
8.36	2.675728	0.025039
8.43	2.668197	0.025744
8.50	2.660581	0.026465
8.57	2.652879	0.027202
8.64	2.645092	0.027954
8.71	2.637217	0.028723
8.78	2.629255	0.029508
8.85	2.621204	0.030311
8.92	2.613064	0.031131
8.99	2.604834	0.031968
9.06	2.596513	0.032823
9.13	2.588100	0.033697
9.20	2.579594	0.034590
9.27	2.570994	0.035502
9.34	2.562300	0.036433
9.41	2.553510	0.037384
9.48	2.544624	0.038356
9.55	2.535640	0.039348
9.62	2.526557	0.040362
9.69	2.517375	0.041397
9.76	2.508092	0.042454
9.83	2.498707	0.043534
9.90	2.489218	0.044638
9.97	2.479626	0.045765
10.04	2.469928	0.046916
10.11	2.460124	0.048092
10.18	2.450211	0.049293
10.25	2.440189	0.050520
10.32	2.430057	0.051773
10.39	2.419813	0.053054
10.46	2.409455	0.054363
10.53	2.398983	0.055699
10.60	2.388394	0.057066
10.67	2.377688	0.058462
10.74	2.366862	0.059888
10.81	2.355915	0.061346
10.88	2.344846	0.062836
10.95	2.333652	0.064360
11.02	2.322332	0.065917
11.09	2.310884	0.067509
11.16	2.299307	0.069137
11.23	2.287597	0.070801
11.30	2.275755	0.072503
11.37	2.263776	0.074244
11.44	2.251660	0.076025
11.51	2.239404	0.077847
11.58	2.227005	0.079712
11.65	2.214463	0.081619
11.72	2.201773	0.083572
11.79	2.188935	0.085571
11.86	2.175944	0.087617
11.93	2.162799	0.089713
12.00	2.149498	0.091859
12.07	2.136036	0.094058
12.14	2.122412	0.096310
12.21	2.108622	0.098619
12.28	2.094664	0.100985
12.35	2.080534	0.103411
12.42	2.066228	0.105899
12.49	2.051744	0.108451
12.56	2.037078	0.111070
12.63	2.022227	0.113757
12.70	2.007186	0.116516
12.77	1.991951	0.119350
12.84	1.976520	0.122260
12.91	1.960886	0.125251
12.98	1.945047	0.128325
13.05	1.928997	0.131487
13.12	1.912731	0.134739
13.19	1.896246	0.138085
13.26	1.879535	0.141531
13.33	1.862594	0.145079
13.40	1.845418	0.148736
13.47	1.827999	0.152505
13.54	1.810333	0.156393
13.61	1.792413	0.160405
13.68	1.774233	0.164548
13.75	1.755786	0.168827
13.82	1.737066	0.173251
13.89	1.718065	0.177826
13.96	1.698776	0.182562
14.03	1.679190	0.187467
14.10	1.659301	0.192550
14.17	1.639100	0.197823
14.24	1.618577	0.203296
14.31	1.597725	0.208983
14.38	1.576535	0.214895
14.45	1.554996	0.221049
14.52	1.533099	0.227459
14.59	1.510835	0.234144
14.66	1.488193	0.241121
14.73	1.465164	0.248413
14.80	1.441738	0.256042
14.87	1.417904	0.264032
14.94	1.393654	0.272413
15.01	1.368979	0.281213
15.08	1.343869	0.290466
15.15	1.318319	0.300209
15.22	1.292322	0.310484
15.29	1.265875	0.321333
15.36	1.238977	0.332807
15.43	1.211631	0.344959
15.50	1.183844	0.357848
15.57	1.155630	0.371538
15.64	1.127008	0.386097
15.71	1.098008	0.401600
15.78	1.068671	0.418124
15.85	1.039049	0.435750
15.92	1.009212	0.454558
15.99	0.979246	0.474628
16.06	0.949256	0.496032
16.13	0.919368	0.518833
16.20	0.889726	0.543074
16.27	0.860491	0.568779
16.34	0.831836	0.595939
16.41	0.803939	0.624514
16.48	0.776972	0.654428
16.55	0.751093	0.685570
16.62	0.726438	0.717798
16.69	0.703108	0.750950
16.76	0.681170	0.784848
16.83	0.660657	0.819315
16.90	0.641567	0.854179
16.97	0.623869	0.889280
17.04	0.607511	0.924477
17.11	0.592425	0.959652
17.18	0.578533	0.994702
17.25	0.565754	1.029548
17.32	0.554003	1.064128
17.39	0.543198	1.098392
17.46	0.533261	1.132307
17.53	0.524119	1.165847
17.60	0.515704	1.198999
17.67	0.507951	1.231751
17.74	0.500805	1.264102
17.81	0.494212	1.296052
17.88	0.488126	1.327605
17.95	0.482504	1.358767
18.02	0.477308	1.389546
18.09	0.472502	1.419951
18.16	0.468055	1.449992
18.23	0.463939	1.479680
18.30	0.460129	1.509026
18.37	0.456601	1.538040
18.44	0.453334	1.566734
18.51	0.450309	1.595118
18.58	0.447509	1.623204
18.65	0.444919	1.651001
18.72	0.442523	1.678520
18.79	0.440310	1.705770
18.86	0.438267	1.732762
18.93	0.436383	1.759504
19.00	0.434648	1.786004
19.07	0.433053	1.812273
19.14	0.431590	1.838317
19.21	0.430251	1.864145
19.28	0.429029	1.889764
19.35	0.427917	1.915182
19.42	0.426909	1.940405
19.49	0.426000	1.965440
19.56	0.425183	1.990294
19.63	0.424455	2.014972
19.70	0.423811	2.039482
19.77	0.423247	2.063828
19.84	0.422758	2.088015
19.91	0.422342	2.112050
19.98	0.421993	2.135937
20.05	0.421711	2.159682
20.12	0.421491	2.183288
20.19	0.421330	2.206761
20.26	0.421226	2.230104
20.33	0.421177	2.253322
20.40	0.421180	2.276420
20.47	0.421234	2.299401
20.54	0.421335	2.322268
20.61	0.421481	2.345026
20.68	0.421673	2.367679
20.75	0.421906	2.390228
20.82	0.422180	2.412679
20.89	0.422493	2.435034
20.96	0.422844	2.457296
21.03	0.423232	2.479469
21.10	0.423654	2.501555
21.17	0.424110	2.523557
21.24	0.424598	2.545479
21.31	0.425118	2.567322
21.38	0.425668	2.589089
21.45	0.426248	2.610784
21.52	0.426855	2.632409
21.59	0.427490	2.653965
21.66	0.428151	2.675456
21.73	0.428837	2.696884
21.80	0.429549	2.718252
21.87	0.430284	2.739561
21.94	0.431042	2.760813
22.01	0.431823	2.782012
22.08	0.432625	2.803159
22.15	0.433448	2.824256
22.22	0.434292	2.845306
22.29	0.435155	2.866309
22.36	0.436038	2.887270
22.43	0.436939	2.908189
22.50	0.437858	2.929068
22.57	0.438795	2.949910
22.64	0.439748	2.970716
22.71	0.440718	2.991488
22.78	0.441704	3.012228
22.85	0.442705	3.032938
22.92	0.443721	3.053621
22.99	0.444752	3.074277
23.06	0.445797	3.094908
23.13	0.446856	3.115517
23.20	0.447928	3.136105
23.27	0.449013	3.156674
23.34	0.450111	3.177226
23.41	0.451220	3.197763
23.48	0.452342	3.218286
23.55	0.453475	3.238797
23.62	0.454619	3.259299
23.69	0.455773	3.279792
23.76	0.456939	3.300280
23.83	0.458114	3.320763
23.90	0.459299	3.341243
23.97	0.460493	3.361723
24.04	0.461697	3.382204
24.11	0.462909	3.402688
24.18	0.464130	3.423177
24.25	0.465359	3.443674
24.32	0.466596	3.464179
24.39	0.467841	3.484695
24.46	0.469093	3.505224
24.53	0.470353	3.525768
24.60	0.471619	3.546329
24.67	0.472891	3.566909
24.74	0.474170	3.587511
24.81	0.475455	3.608135
24.88	0.476746	3.628786
24.95	0.478042	3.649464
25.02	0.479343	3.670172
25.09	0.480650	3.690913
25.16	0.481961	3.711689
25.23	0.483276	3.732502
25.30	0.484596	3.753355
25.37	0.485919	3.774250
25.44	0.487246	3.795190
25.51	0.488577	3.816178
25.58	0.489910	3.837216
25.65	0.491247	3.858308
25.72	0.492586	3.879456
25.79	0.493927	3.900662
25.86	0.495271	3.921931
25.93	0.496616	3.943266
26.00	0.497963	3.964669
26.07	0.499312	3.986144
26.14	0.500661	4.007695
26.21	0.502011	4.029324
26.28	0.503361	4.051037
26.35	0.504712	4.072836
26.42	0.506062	4.094725
26.49	0.507413	4.116710
26.56	0.508762	4.138793
26.63	0.510111	4.160980
26.70	0.511459	4.183275
26.77	0.512805	4.205682
26.84	0.514149	4.228207
26.91	0.515491	4.250855
26.98	0.516831	4.273631
27.05	0.518168	4.296541
27.12	0.519502	4.319590
27.19	0.520833	4.342784
27.26	0.522161	4.366131
27.33	0.523484	4.389636
27.40	0.524804	4.413306
27.47	0.526119	4.437149
27.54	0.527429	4.461171
27.61	0.528734	4.485382
27.68	0.530033	4.509788
27.75	0.531327	4.534399
27.82	0.532614	4.559224
27.89	0.533895	4.584273
27.96	0.535170	4.609554
28.03	0.536437	4.635080
28.10	0.537697	4.660860
28.17	0.538950	4.686906
28.24	0.540194	4.713232
28.31	0.541431	4.739849
28.38	0.542658	4.766771
28.45	0.543877	4.794013
28.52	0.545087	4.821591
28.59	0.546288	4.849519
28.66	0.547479	4.877816
28.73	0.548660	4.906499
28.80	0.549832	4.935589
28.87	0.550993	4.965104
28.94	0.552145	4.995068
29.01	0.553286	5.025502
29.08	0.554417	5.056433
29.15	0.555538	5.087886
29.22	0.556649	5.119890
29.29	0.557751	5.152475
29.36	0.558843	5.185673
29.43	0.559926	5.219519
29.50	0.561000	5.254049
29.57	0.562067	5.289305
29.64	0.563127	5.325329
29.71	0.564182	5.362168
29.78	0.565232	5.399871
29.85	0.566280	5.438493
29.92	0.567327	5.478094
29.99	0.568376	5.518736
