Material: inorganic / PtSe2 / Ermolaev
Optical constants. G. A. Ermolaev, K. V. Voronin, M. K. Tatmyshevskiy, A. B. Mazitov, A. S. Slavich, D. I. Yakubovsky, A. P. Tselin, M. S. Mironov, R. I. Romanov, A. M. Markeev, I. A. Kruglov, S. M. Novikov, A. A. Vyshnevyy, A. V. Arsenin, V. S. Volkov. Broadband optical properties of atomically thin PtS2 and PtSe2, Nanomaterials 11, 3269 (2021) (Numerical data kindly provided by Georgy Ermolaev)
Comments: 5 nm CVD PtSe2.
Specs: {"n_absolute": true, "wavelength_vacuum": true, "film_thickness": "5 nm", "substrate": "sapphire", "deposition_method": "CVD"}
wavelength (um)	n	k
0.245	1.77546	0.85891
0.253	1.60042	0.92730
0.261	1.49772	1.03135
0.269	1.45404	1.13931
0.277	1.44893	1.23176
0.285	1.46102	1.30339
0.293	1.47473	1.35990
0.301	1.48369	1.41160
0.309	1.48939	1.46707
0.317	1.49707	1.53023
0.325	1.51192	1.60074
0.333	1.53739	1.67579
0.341	1.57495	1.75176
0.349	1.62449	1.82514
0.357	1.68487	1.89296
0.365	1.75423	1.95284
0.373	1.83026	2.00313
0.381	1.91035	2.04287
0.389	1.99185	2.07187
0.397	2.07219	2.09068
0.405	2.14921	2.10054
0.413	2.22126	2.10320
0.421	2.28742	2.10069
0.429	2.34741	2.09504
0.437	2.40160	2.08812
0.445	2.45080	2.08141
0.453	2.49613	2.07596
0.461	2.53880	2.07233
0.469	2.57998	2.07068
0.477	2.62070	2.07084
0.485	2.66179	2.07237
0.493	2.70380	2.07468
0.501	2.74707	2.07711
0.509	2.79169	2.07902
0.517	2.83755	2.07982
0.525	2.88439	2.07903
0.533	2.93184	2.07628
0.541	2.97948	2.07138
0.549	3.02686	2.06426
0.557	3.07354	2.05497
0.565	3.11917	2.04369
0.573	3.16344	2.03069
0.581	3.20616	2.01630
0.589	3.24720	2.00085
0.597	3.28659	1.98471
0.605	3.32439	1.96822
0.613	3.36079	1.95166
0.621	3.39602	1.93526
0.629	3.43037	1.91916
0.637	3.46414	1.90345
0.645	3.49765	1.88810
0.653	3.53118	1.87300
0.661	3.56502	1.85798
0.669	3.59935	1.84280
0.677	3.63431	1.82716
0.685	3.66995	1.81073
0.693	3.70624	1.79318
0.701	3.74306	1.77418
0.709	3.78021	1.75344
0.717	3.81740	1.73072
0.725	3.85431	1.70587
0.733	3.89059	1.67878
0.741	3.92586	1.64946
0.749	3.95976	1.61799
0.757	3.99195	1.58452
0.765	4.02215	1.54927
0.773	4.05011	1.51251
0.781	4.07566	1.47452
0.789	4.09870	1.43564
0.797	4.11918	1.39616
0.805	4.13710	1.35640
0.813	4.15251	1.31663
0.821	4.16552	1.27711
0.829	4.17624	1.23806
0.837	4.18482	1.19968
0.845	4.19141	1.16211
0.853	4.19619	1.12548
0.861	4.19932	1.08989
0.869	4.20097	1.05540
0.877	4.20128	1.02207
0.885	4.20042	0.98991
0.893	4.19851	0.95893
0.901	4.19570	0.92914
0.909	4.19210	0.90051
0.917	4.18781	0.87303
0.925	4.18293	0.84666
0.933	4.17755	0.82137
0.941	4.17175	0.79713
0.949	4.16560	0.77389
0.957	4.15915	0.75161
0.965	4.15246	0.73026
0.973	4.14559	0.70978
0.981	4.13856	0.69015
0.989	4.13142	0.67131
0.997	4.12419	0.65324
1.005	4.11692	0.63589
1.013	4.10961	0.61924
1.021	4.10229	0.60323
1.029	4.09498	0.58785
1.037	4.08770	0.57306
1.045	4.08045	0.55883
1.053	4.07325	0.54514
1.061	4.06610	0.53195
1.069	4.05902	0.51924
1.077	4.05202	0.50699
1.085	4.04509	0.49518
1.093	4.03824	0.48378
1.101	4.03148	0.47278
1.109	4.02481	0.46215
1.117	4.01823	0.45188
1.125	4.01175	0.44196
1.133	4.00536	0.43235
1.141	3.99906	0.42306
1.149	3.99286	0.41406
1.157	3.98675	0.40535
1.165	3.98074	0.39691
1.173	3.97482	0.38872
1.181	3.96900	0.38078
1.189	3.96327	0.37308
1.197	3.95763	0.36560
1.205	3.95209	0.35834
1.213	3.94663	0.35129
1.221	3.94127	0.34444
1.229	3.93599	0.33778
1.237	3.93080	0.33130
1.245	3.92569	0.32500
1.253	3.92067	0.31886
1.261	3.91573	0.31289
1.269	3.91086	0.30708
1.277	3.90608	0.30141
1.285	3.90138	0.29589
1.293	3.89675	0.29051
1.301	3.89219	0.28527
1.309	3.88771	0.28015
1.317	3.88330	0.27516
1.325	3.87896	0.27029
1.333	3.87469	0.26553
1.341	3.87048	0.26089
1.349	3.86635	0.25636
1.357	3.86227	0.25193
1.365	3.85826	0.24760
1.373	3.85431	0.24337
1.381	3.85042	0.23923
1.389	3.84659	0.23518
1.397	3.84282	0.23123
1.405	3.83910	0.22736
1.413	3.83544	0.22357
1.421	3.83183	0.21986
1.429	3.82828	0.21623
1.437	3.82478	0.21268
1.445	3.82133	0.20920
1.453	3.81793	0.20579
1.461	3.81457	0.20245
1.469	3.81127	0.19918
1.477	3.80801	0.19597
1.485	3.80480	0.19282
1.493	3.80163	0.18974
1.501	3.79851	0.18672
1.509	3.79543	0.18375
1.517	3.79239	0.18085
1.525	3.78939	0.17799
1.533	3.78643	0.17519
1.541	3.78351	0.17244
1.549	3.78063	0.16975
1.557	3.77779	0.16710
1.565	3.77499	0.16450
1.573	3.77222	0.16195
1.581	3.76949	0.15944
1.589	3.76679	0.15698
1.597	3.76413	0.15456
1.605	3.76150	0.15219
1.613	3.75890	0.14985
1.621	3.75634	0.14756
1.629	3.75381	0.14530
1.637	3.75130	0.14308
1.645	3.74883	0.14091
1.653	3.74639	0.13876
1.661	3.74398	0.13666
1.669	3.74160	0.13459
1.677	3.73924	0.13255
1.685	3.73692	0.13055
1.693	3.73462	0.12857
1.701	3.73234	0.12664
1.709	3.73010	0.12473
1.717	3.72788	0.12285
1.725	3.72568	0.12100
1.733	3.72351	0.11919
1.741	3.72136	0.11740
1.749	3.71924	0.11564
1.757	3.71714	0.11390
1.765	3.71506	0.11219
1.773	3.71301	0.11051
1.781	3.71098	0.10886
1.789	3.70897	0.10723
1.797	3.70698	0.10563
1.805	3.70501	0.10405
1.813	3.70307	0.10249
1.821	3.70114	0.10096
1.829	3.69924	0.09945
1.837	3.69735	0.09796
1.845	3.69549	0.09649
1.853	3.69364	0.09505
1.861	3.69181	0.09363
1.869	3.69000	0.09223
1.877	3.68821	0.09084
1.885	3.68644	0.08948
1.893	3.68468	0.08814
1.901	3.68294	0.08682
1.909	3.68122	0.08551
1.917	3.67951	0.08423
1.925	3.67783	0.08296
1.933	3.67615	0.08172
1.941	3.67450	0.08048
1.949	3.67286	0.07927
1.957	3.67123	0.07807
1.965	3.66962	0.07689
1.973	3.66803	0.07573
1.981	3.66645	0.07458
1.989	3.66489	0.07345
1.997	3.66334	0.07234
2.005	3.66180	0.07124
2.013	3.66028	0.07015
2.021	3.65877	0.06908
2.029	3.65727	0.06803
2.037	3.65579	0.06699
2.045	3.65432	0.06596
2.053	3.65287	0.06495
2.061	3.65143	0.06395
2.069	3.65000	0.06296
2.077	3.64858	0.06199
2.085	3.64717	0.06103
2.093	3.64578	0.06009
2.101	3.64440	0.05915
2.109	3.64303	0.05823
2.117	3.64167	0.05732
2.125	3.64033	0.05643
2.133	3.63899	0.05554
2.141	3.63767	0.05467
2.149	3.63635	0.05381
2.157	3.63505	0.05296
2.165	3.63376	0.05212
2.173	3.63248	0.05129
2.181	3.63121	0.05048
2.189	3.62995	0.04967
2.197	3.62870	0.04888
2.205	3.62746	0.04809
2.213	3.62623	0.04732
2.221	3.62501	0.04656
2.229	3.62380	0.04580
2.237	3.62260	0.04506
2.245	3.62141	0.04433
2.253	3.62023	0.04360
2.261	3.61906	0.04289
2.269	3.61789	0.04218
2.277	3.61674	0.04148
2.285	3.61559	0.04080
2.293	3.61446	0.04012
2.301	3.61333	0.03945
2.309	3.61221	0.03879
2.317	3.61110	0.03814
2.325	3.61000	0.03750
2.333	3.60890	0.03686
2.341	3.60782	0.03624
2.349	3.60674	0.03562
2.357	3.60567	0.03501
2.365	3.60461	0.03441
2.373	3.60355	0.03381
2.381	3.60251	0.03323
2.389	3.60147	0.03265
2.397	3.60044	0.03208
2.405	3.59941	0.03151
2.413	3.59840	0.03096
2.421	3.59739	0.03041
2.429	3.59639	0.02987
2.437	3.59539	0.02933
2.445	3.59441	0.02881
2.453	3.59342	0.02829
2.461	3.59245	0.02777
2.469	3.59149	0.02727
2.477	3.59053	0.02677
2.485	3.58957	0.02628
2.493	3.58863	0.02579
2.501	3.58769	0.02531
2.509	3.58675	0.02484
2.517	3.58583	0.02437
2.525	3.58491	0.02391
2.533	3.58399	0.02345
2.541	3.58309	0.02301
2.549	3.58219	0.02256
2.557	3.58129	0.02213
2.565	3.58040	0.02170
2.573	3.57952	0.02127
2.581	3.57864	0.02086
2.589	3.57777	0.02044
2.597	3.57691	0.02004
2.605	3.57605	0.01964
2.613	3.57519	0.01924
2.621	3.57435	0.01885
2.629	3.57351	0.01847
2.637	3.57267	0.01809
2.645	3.57184	0.01771
2.653	3.57101	0.01734
2.661	3.57019	0.01698
2.669	3.56938	0.01662
2.677	3.56857	0.01627
2.685	3.56777	0.01592
2.693	3.56697	0.01558
2.701	3.56618	0.01524
2.709	3.56539	0.01491
2.717	3.56461	0.01458
2.725	3.56383	0.01426
2.733	3.56306	0.01394
2.741	3.56229	0.01362
2.749	3.56153	0.01331
2.757	3.56077	0.01301
2.765	3.56002	0.01271
2.773	3.55927	0.01241
2.781	3.55853	0.01212
2.789	3.55779	0.01184
2.797	3.55706	0.01155
2.805	3.55633	0.01128
2.813	3.55561	0.01100
2.821	3.55489	0.01073
2.829	3.55418	0.01047
2.837	3.55347	0.01021
2.845	3.55276	0.00995
2.853	3.55206	0.00970
2.861	3.55137	0.00945
2.869	3.55068	0.00920
2.877	3.54999	0.00896
2.885	3.54931	0.00873
2.893	3.54863	0.00849
2.901	3.54795	0.00827
2.909	3.54729	0.00804
2.917	3.54662	0.00782
2.925	3.54596	0.00760
2.933	3.54530	0.00739
2.941	3.54465	0.00718
2.949	3.54400	0.00697
2.957	3.54336	0.00677
2.965	3.54272	0.00657
2.973	3.54208	0.00638
2.981	3.54145	0.00618
2.989	3.54083	0.00600
2.997	3.54020	0.00581
3.005	3.53958	0.00563
3.013	3.53897	0.00545
3.021	3.53836	0.00528
3.029	3.53775	0.00510
3.037	3.53715	0.00494
3.045	3.53655	0.00477
3.053	3.53595	0.00461
3.061	3.53536	0.00445
3.069	3.53477	0.00430
3.077	3.53419	0.00415
3.085	3.53361	0.00400
3.093	3.53303	0.00385
3.101	3.53246	0.00371
3.109	3.53189	0.00357
3.117	3.53133	0.00343
3.125	3.53077	0.00330
3.133	3.53021	0.00317
3.141	3.52966	0.00304
3.149	3.52911	0.00292
3.157	3.52856	0.00280
3.165	3.52802	0.00268
3.173	3.52748	0.00256
3.181	3.52694	0.00245
3.189	3.52641	0.00234
3.197	3.52588	0.00224
3.205	3.52536	0.00213
3.213	3.52484	0.00203
3.221	3.52432	0.00193
3.229	3.52381	0.00183
3.237	3.52330	0.00174
3.245	3.52279	0.00165
3.253	3.52229	0.00156
3.261	3.52179	0.00148
3.269	3.52129	0.00139
3.277	3.52080	0.00131
3.285	3.52031	0.00124
3.293	3.51982	0.00116
