Material: main / WS2 / Ermolaev
Optical constants. G. A. Ermolaev, D. I. Yakubovsky, Yu. V. Stebunov, A. V. Arsenin, V. S. Volkov. Spectral ellipsometry of monolayer transition metal dichalcogenides: Analysis of excitonic peaks in dispersion, J. Vac. Sci. Technol. B 38, 014002 (2020) (Numerical data kindly provided by Georgy Ermolaev)
Comments: Optical constants of monolayer WS2 were measured by spectroscopic ellipsometry in the spectral range 365&#8209;1700&nbsp;nm. WS2 samples were grown on sapphire by atmospheric pressure chemical vapor deposition and then transferred on silicon wafers covered by 295&nbsp;nm SiO2. Taucâ€“Lorentz oscillators were used in ellipsometry model to describe the optical response of excitons.
Specs: {"n_absolute": true, "wavelength_vacuum": true, "film_thickness": "1L", "substrate": "SiO2/Si"}
wavelength (um)	n	k
0.365	2.402	2.775
0.369	2.488	2.789
0.373	2.577	2.798
0.377	2.669	2.803
0.381	2.762	2.803
0.385	2.858	2.797
0.389	2.954	2.785
0.393	3.050	2.768
0.397	3.146	2.746
0.401	3.240	2.719
0.405	3.334	2.688
0.409	3.426	2.656
0.413	3.518	2.623
0.417	3.615	2.592
0.421	3.723	2.561
0.425	3.852	2.524
0.429	4.006	2.465
0.433	4.178	2.357
0.437	4.335	2.184
0.441	4.433	1.960
0.445	4.459	1.729
0.449	4.426	1.523
0.453	4.362	1.354
0.457	4.282	1.220
0.461	4.197	1.115
0.465	4.112	1.033
0.469	4.028	0.9701
0.473	3.948	0.9250
0.477	3.871	0.8960
0.481	3.801	0.8824
0.485	3.738	0.8838
0.489	3.687	0.8995
0.493	3.652	0.9282
0.497	3.637	0.9668
0.501	3.648	1.009
0.505	3.689	1.046
0.509	3.759	1.062
0.513	3.850	1.045
0.517	3.943	0.9819
0.521	4.017	0.8764
0.525	4.052	0.7432
0.529	4.044	0.6036
0.533	3.998	0.4755
0.537	3.925	0.3685
0.541	3.839	0.2852
0.545	3.745	0.2237
0.549	3.650	0.1800
0.553	3.556	0.1509
0.557	3.462	0.1339
0.561	3.368	0.1275
0.565	3.274	0.1312
0.569	3.176	0.1454
0.573	3.074	0.1721
0.577	2.965	0.2153
0.581	2.846	0.2828
0.585	2.717	0.3884
0.589	2.585	0.5560
0.593	2.480	0.8196
0.597	2.485	1.199
0.601	2.719	1.629
0.605	3.236	1.911
0.609	3.862	1.817
0.613	4.253	1.405
0.617	4.337	0.9782
0.621	4.271	0.6755
0.625	4.164	0.4808
0.629	4.058	0.3552
0.633	3.963	0.2717
0.637	3.881	0.2140
0.641	3.810	0.1728
0.645	3.748	0.1424
0.649	3.695	0.1194
0.653	3.648	0.1016
0.657	3.606	0.08754
0.661	3.568	0.07626
0.665	3.534	0.06705
0.669	3.503	0.05945
0.673	3.474	0.05310
0.677	3.448	0.04773
0.681	3.424	0.04315
0.685	3.402	0.03922
0.689	3.381	0.03581
0.693	3.361	0.03284
0.697	3.343	0.03023
0.701	3.325	0.02793
0.705	3.309	0.02589
0.709	3.294	0.02406
0.713	3.279	0.02243
0.717	3.265	0.02096
0.721	3.252	0.01964
0.725	3.239	0.01844
0.729	3.227	0.01734
0.733	3.215	0.01635
0.737	3.204	0.01544
0.741	3.193	0.01460
0.745	3.183	0.01383
0.749	3.173	0.01312
0.753	3.164	0.01247
0.757	3.155	0.01186
0.761	3.146	0.01129
0.765	3.137	0.01077
0.769	3.129	0.01028
0.773	3.121	0.009825
0.777	3.113	0.009398
0.781	3.106	0.008998
0.785	3.099	0.008623
0.789	3.092	0.008271
0.793	3.085	0.007940
0.797	3.078	0.007627
0.801	3.072	0.007333
0.805	3.066	0.007055
0.809	3.060	0.006792
0.813	3.054	0.006543
0.817	3.048	0.006307
0.821	3.042	0.006083
0.825	3.037	0.005870
0.829	3.032	0.005668
0.833	3.026	0.005475
0.837	3.021	0.005292
0.841	3.017	0.005117
0.845	3.012	0.004951
0.849	3.007	0.004792
0.853	3.002	0.004640
0.857	2.998	0.004494
0.861	2.994	0.004355
0.865	2.989	0.004222
0.869	2.985	0.004094
0.873	2.981	0.003972
0.877	2.977	0.003854
0.881	2.973	0.003741
0.885	2.969	0.003633
0.889	2.966	0.003528
0.893	2.962	0.003428
0.897	2.958	0.003332
0.901	2.955	0.003239
0.905	2.951	0.003149
0.909	2.948	0.003063
0.913	2.945	0.002980
0.917	2.941	0.002899
0.921	2.938	0.002822
0.925	2.935	0.002747
0.929	2.932	0.002674
0.933	2.929	0.002605
0.937	2.926	0.002537
0.941	2.923	0.002472
0.945	2.920	0.002408
0.949	2.918	0.002347
0.953	2.915	0.002288
0.957	2.912	0.002230
0.961	2.910	0.002174
0.965	2.907	0.002120
0.969	2.904	0.002068
0.973	2.902	0.002017
0.977	2.899	0.001968
0.981	2.897	0.001920
0.985	2.895	0.001873
0.989	2.892	0.001828
0.993	2.890	0.001784
0.997	2.888	0.001741
1.001	2.885	0.001700
1.005	2.883	0.001660
1.009	2.881	0.001620
1.013	2.879	0.001582
1.017	2.877	0.001545
1.021	2.875	0.001509
1.025	2.873	0.001474
1.029	2.871	0.001439
1.033	2.869	0.001406
1.037	2.867	0.001374
1.041	2.865	0.001342
1.045	2.863	0.001311
1.049	2.861	0.001281
1.053	2.859	0.001251
1.057	2.858	0.001223
1.061	2.856	0.001195
1.065	2.854	0.001168
1.069	2.852	0.001141
1.073	2.851	0.001115
1.077	2.849	0.001090
1.081	2.847	0.001065
1.085	2.846	0.001041
1.089	2.844	0.001017
1.093	2.843	9.943E-04
1.097	2.841	9.718E-04
1.101	2.840	9.498E-04
1.105	2.838	9.283E-04
1.109	2.837	9.073E-04
1.113	2.835	8.868E-04
1.117	2.834	8.668E-04
1.121	2.832	8.472E-04
1.125	2.831	8.280E-04
1.129	2.829	8.093E-04
1.133	2.828	7.910E-04
1.137	2.827	7.730E-04
1.141	2.825	7.555E-04
1.145	2.824	7.383E-04
1.149	2.823	7.216E-04
1.153	2.821	7.051E-04
1.157	2.820	6.891E-04
1.161	2.819	6.733E-04
1.165	2.818	6.580E-04
1.169	2.816	6.429E-04
1.173	2.815	6.282E-04
1.177	2.814	6.137E-04
1.181	2.813	5.996E-04
1.185	2.812	5.857E-04
1.189	2.811	5.722E-04
1.193	2.809	5.589E-04
1.197	2.808	5.459E-04
1.201	2.807	5.332E-04
1.205	2.806	5.208E-04
1.209	2.805	5.086E-04
1.213	2.804	4.966E-04
1.217	2.803	4.849E-04
1.221	2.802	4.734E-04
1.225	2.801	4.622E-04
1.229	2.800	4.512E-04
1.233	2.799	4.404E-04
1.237	2.798	4.298E-04
1.241	2.797	4.195E-04
1.245	2.796	4.093E-04
1.249	2.795	3.994E-04
1.253	2.794	3.896E-04
1.257	2.793	3.801E-04
1.261	2.792	3.707E-04
1.265	2.791	3.616E-04
1.269	2.790	3.526E-04
1.273	2.789	3.438E-04
1.277	2.788	3.352E-04
1.281	2.788	3.267E-04
1.285	2.787	3.184E-04
1.289	2.786	3.103E-04
1.293	2.785	3.024E-04
1.297	2.784	2.946E-04
1.301	2.783	2.869E-04
1.305	2.782	2.795E-04
1.309	2.782	2.721E-04
1.313	2.781	2.649E-04
1.317	2.780	2.579E-04
1.321	2.779	2.510E-04
1.325	2.778	2.443E-04
1.329	2.778	2.376E-04
1.333	2.777	2.311E-04
1.337	2.776	2.248E-04
1.341	2.775	2.186E-04
1.345	2.775	2.125E-04
1.349	2.774	2.065E-04
1.353	2.773	2.007E-04
1.357	2.773	1.949E-04
1.361	2.772	1.893E-04
1.365	2.771	1.838E-04
1.369	2.770	1.785E-04
1.373	2.770	1.732E-04
1.377	2.769	1.680E-04
1.381	2.768	1.630E-04
1.385	2.768	1.580E-04
1.389	2.767	1.532E-04
1.393	2.766	1.485E-04
1.397	2.766	1.439E-04
1.401	2.765	1.393E-04
1.405	2.764	1.349E-04
1.409	2.764	1.306E-04
1.413	2.763	1.263E-04
1.417	2.763	1.222E-04
1.421	2.762	1.181E-04
1.425	2.761	1.142E-04
1.429	2.761	1.103E-04
1.433	2.760	1.065E-04
1.437	2.760	1.028E-04
1.441	2.759	9.918E-05
1.445	2.758	9.565E-05
1.449	2.758	9.220E-05
1.453	2.757	8.883E-05
1.457	2.757	8.554E-05
1.461	2.756	8.233E-05
1.465	2.756	7.920E-05
1.469	2.755	7.615E-05
1.473	2.754	7.317E-05
1.477	2.754	7.026E-05
1.481	2.753	6.743E-05
1.485	2.753	6.467E-05
1.489	2.752	6.198E-05
1.493	2.752	5.936E-05
1.497	2.751	5.681E-05
1.501	2.751	5.433E-05
1.505	2.750	5.192E-05
1.509	2.750	4.957E-05
1.513	2.749	4.728E-05
1.517	2.749	4.507E-05
1.521	2.748	4.291E-05
1.525	2.748	4.082E-05
1.529	2.747	3.879E-05
1.533	2.747	3.682E-05
1.537	2.746	3.491E-05
1.541	2.746	3.306E-05
1.545	2.746	3.126E-05
1.549	2.745	2.953E-05
1.553	2.745	2.785E-05
1.557	2.744	2.623E-05
1.561	2.744	2.467E-05
1.565	2.743	2.315E-05
1.569	2.743	2.170E-05
1.573	2.742	2.029E-05
1.577	2.742	1.894E-05
1.581	2.742	1.764E-05
1.585	2.741	1.640E-05
1.589	2.741	1.520E-05
1.593	2.740	1.405E-05
1.597	2.740	1.296E-05
1.601	2.739	1.191E-05
1.605	2.739	1.091E-05
1.609	2.739	9.957E-06
1.613	2.738	9.052E-06
1.617	2.738	8.193E-06
1.621	2.737	7.381E-06
1.625	2.737	6.614E-06
1.629	2.737	5.891E-06
1.633	2.736	5.214E-06
1.637	2.736	4.580E-06
1.641	2.736	3.989E-06
1.645	2.735	3.441E-06
1.649	2.735	2.936E-06
1.653	2.734	2.472E-06
1.657	2.734	2.050E-06
1.661	2.734	1.669E-06
1.665	2.733	1.328E-06
1.669	2.733	1.027E-06
1.673	2.733	7.655E-07
1.677	2.732	5.432E-07
1.681	2.732	3.595E-07
1.685	2.732	2.141E-07
1.689	2.731	1.065E-07
1.693	2.731	3.626E-08
1.697	2.731	3.029E-09
