Material: main / WS2 / Hsu-2L
Optical constants. C. Hsu, R. Frisenda, R. Schmidt, A. Arora, S. M. de Vasconcellos, R. Bratschitsch, H. S. J. van der Zant, A. Castellanos-Gomez. Thickness-dependent refractive index of 1L, 2L, and 3L MoS2, MoSe2, WS2, and WSe2, Adv. Optical Mater. 7, 1900239 (2019) (Numerical data kindly provided by Andres Castellanos-Gomez)
Comments: 2-layer (2L)
Specs: {"n_absolute": true, "wavelength_vacuum": true, "film_thickness": "2L"}
wavelength (um)	n	k
0.39697	4.3175E+00	3.0079E+00
0.39806	4.0986E+00	2.5170E+00
0.39914	4.0317E+00	2.4773E+00
0.40023	4.8107E+00	2.9614E+00
0.40132	5.4785E+00	3.4501E+00
0.40240	5.7200E+00	3.6757E+00
0.40349	5.7823E+00	3.7267E+00
0.40458	5.7200E+00	3.6213E+00
0.40567	5.7143E+00	3.5771E+00
0.40676	5.8356E+00	3.6349E+00
0.40785	6.0113E+00	3.7925E+00
0.40894	6.0737E+00	3.8186E+00
0.41002	6.1066E+00	3.8084E+00
0.41111	6.1077E+00	3.7460E+00
0.41221	6.1315E+00	3.7358E+00
0.41330	6.1077E+00	3.6780E+00
0.41439	6.0975E+00	3.6406E+00
0.41548	6.0964E+00	3.6122E+00
0.41657	6.1179E+00	3.6428E+00
0.41766	6.1213E+00	3.6372E+00
0.41876	6.1179E+00	3.6179E+00
0.41985	6.1168E+00	3.5986E+00
0.42094	6.1361E+00	3.6247E+00
0.42204	6.1735E+00	3.6961E+00
0.42313	6.2245E+00	3.7948E+00
0.42423	6.2687E+00	3.8934E+00
0.42532	6.3152E+00	4.0102E+00
0.42642	6.3435E+00	4.1088E+00
0.42751	6.3673E+00	4.1916E+00
0.42861	6.3662E+00	4.2540E+00
0.42970	6.3719E+00	4.3163E+00
0.43080	6.3639E+00	4.3651E+00
0.43190	6.3492E+00	4.3753E+00
0.43300	6.3231E+00	4.3560E+00
0.43409	6.2857E+00	4.3186E+00
0.43519	6.2460E+00	4.2857E+00
0.43629	6.2063E+00	4.2574E+00
0.43739	6.1757E+00	4.2109E+00
0.43849	6.1474E+00	4.1621E+00
0.43959	6.1236E+00	4.0998E+00
0.44069	6.1066E+00	4.0374E+00
0.44179	6.0896E+00	3.9637E+00
0.44289	6.0680E+00	3.8741E+00
0.44399	6.0488E+00	3.7732E+00
0.44509	6.0431E+00	3.6701E+00
0.44619	6.0351E+00	3.5442E+00
0.44729	6.0204E+00	3.4070E+00
0.44840	6.0125E+00	3.2789E+00
0.44950	6.0204E+00	3.1644E+00
0.45060	6.0283E+00	3.0499E+00
0.45171	6.0272E+00	2.9195E+00
0.45281	6.0261E+00	2.7936E+00
0.45391	6.0249E+00	2.6678E+00
0.45502	6.0442E+00	2.5737E+00
0.45612	6.0635E+00	2.4932E+00
0.45723	6.0646E+00	2.3968E+00
0.45834	6.0612E+00	2.3072E+00
0.45944	6.0374E+00	2.2109E+00
0.46055	6.0567E+00	2.1621E+00
0.46165	6.0805E+00	2.1247E+00
0.46276	6.1383E+00	2.1168E+00
0.46387	6.1893E+00	2.1043E+00
0.46498	6.2313E+00	2.0918E+00
0.46608	6.2891E+00	2.1020E+00
0.46719	6.3401E+00	2.1145E+00
0.46830	6.4002E+00	2.1360E+00
0.46941	6.4535E+00	2.1599E+00
0.47052	6.5068E+00	2.1837E+00
0.47163	6.5760E+00	2.2370E+00
0.47274	6.4342E+00	2.0703E+00
0.47385	5.7642E+00	1.4206E+00
0.47496	5.6338E+00	1.3197E+00
0.47607	5.5714E+00	1.2642E+00
0.47718	5.4932E+00	1.2086E+00
0.47830	5.4444E+00	1.1735E+00
0.47941	5.4070E+00	1.1451E+00
0.48052	5.3583E+00	1.1168E+00
0.48163	5.2937E+00	1.0794E+00
0.48275	5.2222E+00	1.0465E+00
0.48386	5.1780E+00	1.0249E+00
0.48498	5.1451E+00	1.0102E+00
0.48609	5.1054E+00	9.9545E-01
0.48720	5.0658E+00	9.8072E-01
0.48832	5.0215E+00	9.6824E-01
0.48943	4.9751E+00	9.5577E-01
0.49055	4.9240E+00	9.4103E-01
0.49167	4.8730E+00	9.2856E-01
0.49278	4.8333E+00	9.2062E-01
0.49390	4.7937E+00	9.1722E-01
0.49502	4.7540E+00	9.1155E-01
0.49613	4.7029E+00	9.0815E-01
0.49725	4.6587E+00	9.0929E-01
0.49837	4.6190E+00	9.1722E-01
0.49949	4.5794E+00	9.2516E-01
0.50061	4.5397E+00	9.3083E-01
0.50173	4.5000E+00	9.3650E-01
0.50285	4.4603E+00	9.4897E-01
0.50397	4.4297E+00	9.6824E-01
0.50509	4.4036E+00	9.8979E-01
0.50621	4.3753E+00	1.0091E+00
0.50733	4.3515E+00	1.0329E+00
0.50845	4.3299E+00	1.0567E+00
0.50957	4.3129E+00	1.0782E+00
0.51069	4.2982E+00	1.1020E+00
0.51181	4.2857E+00	1.1258E+00
0.51294	4.2846E+00	1.1451E+00
0.51406	4.2902E+00	1.1644E+00
0.51518	4.3027E+00	1.1837E+00
0.51630	4.3243E+00	1.2029E+00
0.51743	4.3458E+00	1.2199E+00
0.51855	4.3673E+00	1.2324E+00
0.51968	4.3889E+00	1.2472E+00
0.52080	4.4127E+00	1.2528E+00
0.52193	4.4365E+00	1.2517E+00
0.52305	4.4580E+00	1.2460E+00
0.52418	4.4773E+00	1.2381E+00
0.52530	4.5011E+00	1.2256E+00
0.52643	4.5181E+00	1.2109E+00
0.52756	4.5329E+00	1.1916E+00
0.52868	4.5385E+00	1.1723E+00
0.52981	4.5397E+00	1.1508E+00
0.53094	4.5272E+00	1.1270E+00
0.53207	4.5170E+00	1.1032E+00
0.53320	4.5023E+00	1.0771E+00
0.53432	4.4830E+00	1.0510E+00
0.53545	4.4637E+00	1.0272E+00
0.53658	4.4376E+00	1.0057E+00
0.53771	4.4161E+00	9.8638E-01
0.53884	4.3878E+00	9.6711E-01
0.53997	4.3594E+00	9.5691E-01
0.54110	4.3311E+00	9.5124E-01
0.54224	4.3027E+00	9.4557E-01
0.54337	4.2812E+00	9.3990E-01
0.54450	4.2642E+00	9.3423E-01
0.54563	4.2540E+00	9.3083E-01
0.54676	4.2438E+00	9.2062E-01
0.54789	4.2381E+00	9.1269E-01
0.54903	4.2324E+00	9.0702E-01
0.55016	4.2245E+00	9.0135E-01
0.55129	4.2188E+00	9.0022E-01
0.55243	4.2222E+00	9.0135E-01
0.55356	4.2279E+00	8.9568E-01
0.55470	4.2313E+00	8.9228E-01
0.55583	4.2392E+00	8.9115E-01
0.55697	4.2494E+00	8.8548E-01
0.55810	4.2619E+00	8.7981E-01
0.55924	4.2698E+00	8.7187E-01
0.56037	4.2846E+00	8.6167E-01
0.56151	4.3016E+00	8.4920E-01
0.56265	4.3186E+00	8.3672E-01
0.56378	4.3311E+00	8.2198E-01
0.56492	4.3435E+00	8.1178E-01
0.56606	4.3605E+00	8.0158E-01
0.56720	4.3753E+00	7.9137E-01
0.56834	4.3832E+00	7.7890E-01
0.56947	4.3889E+00	7.6189E-01
0.57061	4.4014E+00	7.4942E-01
0.57175	4.4184E+00	7.3242E-01
0.57289	4.4286E+00	7.1768E-01
0.57403	4.4342E+00	7.0067E-01
0.57517	4.4444E+00	6.8366E-01
0.57631	4.4524E+00	6.6666E-01
0.57745	4.4603E+00	6.4965E-01
0.57860	4.4637E+00	6.3037E-01
0.57974	4.4580E+00	6.1564E-01
0.58088	4.4524E+00	6.0316E-01
0.58202	4.4444E+00	5.9069E-01
0.58316	4.4320E+00	5.7595E-01
0.58431	4.4150E+00	5.6348E-01
0.58545	4.4025E+00	5.5101E-01
0.58659	4.3923E+00	5.3627E-01
0.58774	4.3730E+00	5.2607E-01
0.58888	4.3515E+00	5.1813E-01
0.59002	4.3299E+00	5.1019E-01
0.59117	4.3084E+00	5.0449E-01
0.59231	4.2823E+00	5.0316E-01
0.59346	4.2494E+00	5.0329E-01
0.59460	4.2188E+00	4.9928E-01
0.59575	4.1859E+00	4.9819E-01
0.59690	4.1553E+00	4.9705E-01
0.59804	4.1179E+00	5.0176E-01
0.59919	4.0760E+00	5.1151E-01
0.60034	4.0317E+00	5.2625E-01
0.60148	3.9921E+00	5.4099E-01
0.60263	3.9524E+00	5.6026E-01
0.60378	3.9082E+00	5.8407E-01
0.60493	3.8639E+00	6.1242E-01
0.60607	3.8129E+00	6.4983E-01
0.60722	3.7551E+00	6.9632E-01
0.60837	3.7041E+00	7.5641E-01
0.60952	3.6531E+00	8.2557E-01
0.61067	3.6111E+00	9.0380E-01
0.61182	3.5714E+00	1.0002E+00
0.61297	3.5317E+00	1.1170E+00
0.61412	3.5057E+00	1.2519E+00
0.61527	3.5000E+00	1.3959E+00
0.61642	3.5261E+00	1.5489E+00
0.61758	3.5862E+00	1.6975E+00
0.61873	3.6735E+00	1.8301E+00
0.61988	3.7925E+00	1.9219E+00
0.62103	3.9410E+00	1.9616E+00
0.62219	4.1032E+00	1.9469E+00
0.62334	4.2857E+00	1.8755E+00
0.62449	4.4841E+00	1.7587E+00
0.62565	4.6803E+00	1.6170E+00
0.62680	4.8515E+00	1.4707E+00
0.62795	4.9841E+00	1.3267E+00
0.62911	5.0850E+00	1.1918E+00
0.63026	5.1429E+00	1.0705E+00
0.63142	5.1689E+00	9.5142E-01
0.63257	5.1633E+00	8.4598E-01
0.63373	5.1417E+00	7.5414E-01
0.63488	5.1111E+00	6.7364E-01
0.63604	5.0714E+00	6.0902E-01
0.63720	5.0385E+00	5.5119E-01
0.63835	4.9966E+00	5.0444E-01
0.63951	4.9683E+00	4.5999E-01
0.64067	4.9399E+00	4.2834E-01
0.64183	4.9070E+00	3.9845E-01
0.64298	4.8787E+00	3.7103E-01
0.64414	4.8526E+00	3.5315E-01
0.64530	4.8265E+00	3.3585E-01
0.64646	4.8027E+00	3.1781E-01
0.64762	4.7834E+00	3.0300E-01
0.64878	4.7687E+00	2.8992E-01
0.64994	4.7494E+00	2.8426E-01
0.65110	4.7302E+00	2.7529E-01
0.65226	4.7041E+00	2.6816E-01
0.65342	4.6757E+00	2.6250E-01
0.65458	4.6542E+00	2.5416E-01
0.65574	4.6372E+00	2.4968E-01
0.65690	4.6202E+00	2.4372E-01
0.65806	4.6009E+00	2.3475E-01
0.65923	4.5839E+00	2.3247E-01
0.66039	4.5737E+00	2.2738E-01
0.66155	4.5567E+00	2.1980E-01
0.66271	4.5351E+00	2.1591E-01
0.66388	4.5159E+00	2.1591E-01
0.66504	4.5011E+00	2.1584E-01
0.66620	4.4909E+00	2.1336E-01
0.66737	4.4830E+00	2.1108E-01
0.66853	4.4683E+00	2.0944E-01
0.66970	4.4535E+00	2.0844E-01
0.67086	4.4342E+00	2.0720E-01
0.67203	4.4172E+00	2.0828E-01
0.67319	4.4048E+00	2.0444E-01
0.67436	4.3991E+00	2.0221E-01
0.67552	4.3889E+00	2.0000E-01
0.67669	4.3764E+00	2.0000E-01
0.67786	4.3594E+00	2.0000E-01
0.67902	4.3447E+00	2.0000E-01
0.68019	4.3345E+00	1.9999E-01
0.68136	4.3288E+00	1.9778E-01
0.68253	4.3345E+00	1.9841E-01
0.68369	4.3356E+00	2.0000E-01
0.68486	4.3254E+00	2.0000E-01
0.68603	4.3129E+00	2.0000E-01
0.68720	4.3005E+00	1.9995E-01
0.68837	4.2925E+00	1.9709E-01
0.68954	4.2800E+00	1.9276E-01
0.69071	4.2721E+00	1.9164E-01
0.69188	4.2619E+00	1.9115E-01
0.69305	4.2630E+00	1.8900E-01
0.69422	4.2551E+00	1.8651E-01
0.69539	4.2426E+00	1.9142E-01
0.69656	4.2302E+00	1.9542E-01
0.69773	4.2200E+00	1.9056E-01
0.69890	4.2166E+00	1.8474E-01
0.70007	4.2109E+00	1.8050E-01
0.70124	4.2052E+00	1.7842E-01
0.70242	4.1973E+00	1.7783E-01
0.70359	4.1825E+00	1.7212E-01
0.70476	4.1701E+00	1.7021E-01
0.70593	4.1553E+00	1.7021E-01
0.70711	4.1451E+00	1.7021E-01
0.70828	4.1349E+00	1.7021E-01
0.70946	4.1247E+00	1.7021E-01
0.71063	4.1190E+00	1.7007E-01
0.71180	4.1134E+00	1.6353E-01
0.71298	4.1077E+00	1.5625E-01
0.71415	4.0952E+00	1.5625E-01
0.71533	4.0850E+00	1.5625E-01
0.71650	4.0748E+00	1.5625E-01
0.71768	4.0669E+00	1.5575E-01
0.71886	4.0658E+00	1.4800E-01
0.72003	4.0578E+00	1.4284E-01
0.72121	4.0431E+00	1.3912E-01
0.72239	4.0261E+00	1.4108E-01
0.72356	4.0091E+00	1.4242E-01
0.72474	4.0011E+00	1.3498E-01
0.72592	3.9887E+00	1.3180E-01
0.72710	3.9785E+00	1.3212E-01
0.72827	3.9660E+00	1.3766E-01
0.72945	3.9626E+00	1.3499E-01
0.73063	3.9592E+00	1.2811E-01
0.73181	3.9490E+00	1.2077E-01
0.73299	3.9342E+00	1.1765E-01
0.73417	3.9195E+00	1.1773E-01
0.73535	3.9093E+00	1.2290E-01
0.73653	3.8923E+00	1.1905E-01
0.73771	3.8685E+00	1.1757E-01
0.73889	3.8447E+00	1.1422E-01
0.74007	3.8277E+00	1.1764E-01
0.74125	3.8152E+00	1.1552E-01
0.74243	3.8186E+00	1.0738E-01
0.74361	3.8175E+00	1.0577E-01
0.74480	3.8073E+00	1.0607E-01
0.74598	3.7880E+00	1.1077E-01
0.74716	3.7710E+00	1.1105E-01
0.74834	3.7404E+00	1.1251E-01
0.74952	3.7188E+00	1.1055E-01
0.75071	3.6973E+00	1.1111E-01
0.75189	3.6984E+00	1.0880E-01
0.75307	3.6905E+00	1.0748E-01
0.75426	3.6757E+00	1.0916E-01
0.75544	3.6633E+00	1.1117E-01
0.75663	3.6440E+00	1.1494E-01
0.75781	3.6224E+00	1.2117E-01
0.75900	3.6077E+00	1.2287E-01
0.76018	3.5952E+00	1.2074E-01
0.76137	3.5850E+00	1.1947E-01
0.76255	3.5771E+00	1.2869E-01
0.76374	3.5556E+00	1.3925E-01
0.76492	3.5227E+00	1.4285E-01
0.76611	3.5011E+00	1.3903E-01
0.76730	3.5091E+00	1.3180E-01
0.76848	3.5147E+00	1.3180E-01
0.76967	3.5045E+00	1.3415E-01
0.77086	3.4717E+00	1.4518E-01
0.77205	3.4592E+00	1.4652E-01
0.77323	3.4717E+00	1.4286E-01
0.77442	3.4887E+00	1.4098E-01
0.77561	3.4966E+00	1.4308E-01
0.77680	3.4887E+00	1.5284E-01
0.77799	3.4853E+00	1.5565E-01
0.77918	3.4932E+00	1.4622E-01
0.78037	3.4943E+00	1.4911E-01
0.78156	3.4728E+00	1.5643E-01
0.78274	3.4376E+00	1.6758E-01
0.78393	3.4070E+00	1.8127E-01
0.78513	3.4218E+00	1.8266E-01
0.78632	3.4456E+00	1.8246E-01
0.78751	3.4694E+00	1.7365E-01
0.78870	3.4751E+00	1.6508E-01
0.78989	3.4875E+00	1.5178E-01
0.79108	3.5023E+00	1.3470E-01
0.79227	3.5102E+00	1.2678E-01
0.79346	3.5091E+00	1.2646E-01
0.79466	3.4762E+00	1.4050E-01
0.79585	3.4388E+00	1.6501E-01
0.79704	3.4150E+00	1.7790E-01
0.79823	3.4206E+00	1.9173E-01
0.79943	3.4399E+00	1.7706E-01
0.80062	3.4796E+00	1.4855E-01
0.80181	3.5193E+00	1.1573E-01
0.80301	3.5431E+00	1.0263E-01
0.80420	3.5283E+00	1.2522E-01
0.80540	3.5204E+00	1.3656E-01
0.80659	3.5420E+00	1.3212E-01
0.80779	3.5771E+00	9.7036E-02
0.80898	3.5941E+00	8.9661E-02
0.81018	3.5771E+00	1.0975E-01
0.81137	3.5193E+00	1.5232E-01
0.81257	3.5159E+00	1.5615E-01
0.81376	3.5442E+00	1.2009E-01
0.81496	3.5771E+00	1.1457E-01
0.81616	3.6077E+00	1.2187E-01
0.81735	3.6519E+00	1.2243E-01
0.81855	3.6984E+00	7.9496E-02
0.81975	3.7200E+00	3.9067E-02
0.82094	3.7528E+00	4.5891E-03
0.82214	3.7834E+00	3.4376E-03
0.82334	3.8073E+00	1.2081E-03
0.82454	3.7676E+00	1.6391E-02
0.82574	3.7460E+00	1.7969E-02
0.82694	3.7177E+00	3.5185E-02
0.82813	3.7279E+00	3.5111E-02
0.82933	3.7313E+00	1.8788E-02
0.83053	3.7211E+00	2.5259E-02
0.83173	3.6859E+00	5.1269E-02
0.83293	3.6463E+00	7.7485E-02
0.83413	3.6111E+00	1.0379E-01
0.83533	3.6009E+00	7.2629E-02
0.83653	3.6315E+00	5.8130E-02
0.83773	3.6825E+00	1.1716E-02
0.83893	3.7290E+00	1.4200E-02
0.84013	3.7370E+00	1.0569E-02
0.84134	3.6859E+00	3.4274E-02
0.84254	3.6644E+00	5.7538E-02
0.84374	3.6247E+00	7.2505E-02
0.84494	3.6281E+00	5.5441E-02
0.84614	3.6383E+00	5.6689E-03
0.84735	3.6644E+00	4.5891E-03
0.84855	3.6633E+00	1.6358E-02
0.84975	3.6281E+00	3.4014E-02
