Material: main / WS2 / Hsu-3L
Optical constants. C. Hsu, R. Frisenda, R. Schmidt, A. Arora, S. M. de Vasconcellos, R. Bratschitsch, H. S. J. van der Zant, A. Castellanos-Gomez. Thickness-dependent refractive index of 1L, 2L, and 3L MoS2, MoSe2, WS2, and WSe2, Adv. Optical Mater. 7, 1900239 (2019) (Numerical data kindly provided by Andres Castellanos-Gomez)
Comments: 3-layer (3L)
Specs: {"n_absolute": true, "wavelength_vacuum": true, "film_thickness": "3L"}
wavelength (um)	n	k
0.39697	3.6190E+00	2.5630E+00
0.39806	4.0601E+00	2.4281E+00
0.39914	4.4240E+00	2.6991E+00
0.40023	4.5499E+00	2.7841E+00
0.40132	4.6735E+00	2.8782E+00
0.40240	4.7744E+00	2.9610E+00
0.40349	4.7347E+00	2.8691E+00
0.40458	4.6678E+00	2.7592E+00
0.40567	4.6712E+00	2.7036E+00
0.40676	4.8039E+00	2.7932E+00
0.40785	4.9660E+00	2.9236E+00
0.40894	5.0556E+00	2.9950E+00
0.41002	5.1224E+00	3.0415E+00
0.41111	5.1395E+00	3.0063E+00
0.41221	5.1678E+00	3.0029E+00
0.41330	5.1780E+00	2.9678E+00
0.41439	5.1995E+00	2.9689E+00
0.41548	5.2166E+00	2.9632E+00
0.41657	5.2268E+00	2.9462E+00
0.41766	5.2324E+00	2.9111E+00
0.41876	5.2268E+00	2.8691E+00
0.41985	5.2279E+00	2.8385E+00
0.42094	5.2336E+00	2.8147E+00
0.42204	5.2483E+00	2.7841E+00
0.42313	5.2766E+00	2.7716E+00
0.42423	5.3118E+00	2.7773E+00
0.42532	5.3401E+00	2.7580E+00
0.42642	5.3413E+00	2.7002E+00
0.42751	5.3401E+00	2.6446E+00
0.42861	5.3345E+00	2.6004E+00
0.42970	5.3243E+00	2.5471E+00
0.43080	5.3027E+00	2.4916E+00
0.43190	5.2766E+00	2.4451E+00
0.43300	5.2324E+00	2.3759E+00
0.43409	5.1814E+00	2.3113E+00
0.43519	5.1327E+00	2.2535E+00
0.43629	5.1134E+00	2.2524E+00
0.43739	5.1054E+00	2.2739E+00
0.43849	5.1043E+00	2.3068E+00
0.43959	5.0828E+00	2.3056E+00
0.44069	5.0612E+00	2.2932E+00
0.44179	5.0465E+00	2.2875E+00
0.44289	5.0317E+00	2.2705E+00
0.44399	5.0170E+00	2.2512E+00
0.44509	5.0136E+00	2.2433E+00
0.44619	4.9966E+00	2.2104E+00
0.44729	4.9819E+00	2.1753E+00
0.44840	4.9490E+00	2.1016E+00
0.44950	4.9161E+00	2.0120E+00
0.45060	4.8741E+00	1.9066E+00
0.45171	4.8322E+00	1.8079E+00
0.45281	4.8333E+00	1.7592E+00
0.45391	4.8458E+00	1.7195E+00
0.45502	4.8832E+00	1.6957E+00
0.45612	4.9116E+00	1.6605E+00
0.45723	4.9376E+00	1.6299E+00
0.45834	4.9569E+00	1.5970E+00
0.45944	4.9717E+00	1.5687E+00
0.46055	4.9955E+00	1.5426E+00
0.46165	5.0170E+00	1.5188E+00
0.46276	5.0499E+00	1.4973E+00
0.46387	5.0782E+00	1.4757E+00
0.46498	5.1020E+00	1.4542E+00
0.46608	5.1259E+00	1.4394E+00
0.46719	5.1406E+00	1.4224E+00
0.46830	5.1531E+00	1.4077E+00
0.46941	5.1655E+00	1.3929E+00
0.47052	5.1825E+00	1.3805E+00
0.47163	5.1973E+00	1.3680E+00
0.47274	5.2098E+00	1.3578E+00
0.47385	5.2177E+00	1.3499E+00
0.47496	5.2256E+00	1.3419E+00
0.47607	5.2336E+00	1.3317E+00
0.47718	5.2460E+00	1.3238E+00
0.47830	5.2517E+00	1.3159E+00
0.47941	5.2551E+00	1.3102E+00
0.48052	5.2653E+00	1.3068E+00
0.48163	5.2778E+00	1.3011E+00
0.48275	5.2857E+00	1.2954E+00
0.48386	5.2914E+00	1.2898E+00
0.48498	5.2971E+00	1.2886E+00
0.48609	5.2959E+00	1.2852E+00
0.48720	5.3061E+00	1.2841E+00
0.48832	5.3027E+00	1.2784E+00
0.48943	5.3152E+00	1.2796E+00
0.49055	5.3186E+00	1.2784E+00
0.49167	5.3084E+00	1.2682E+00
0.49278	5.2846E+00	1.2444E+00
0.49390	5.2245E+00	1.1934E+00
0.49502	5.0986E+00	1.1016E+00
0.49613	4.9841E+00	1.0301E+00
0.49725	4.8991E+00	9.8819E-01
0.49837	4.8390E+00	9.6664E-01
0.49949	4.7721E+00	9.4510E-01
0.50061	4.7075E+00	9.2583E-01
0.50173	4.6474E+00	9.1336E-01
0.50285	4.6009E+00	9.0769E-01
0.50397	4.5658E+00	9.1336E-01
0.50509	4.5283E+00	9.1676E-01
0.50621	4.4819E+00	9.1789E-01
0.50733	4.4490E+00	9.2583E-01
0.50845	4.4229E+00	9.3603E-01
0.50957	4.3991E+00	9.4397E-01
0.51069	4.3821E+00	9.5644E-01
0.51181	4.3696E+00	9.6891E-01
0.51294	4.3617E+00	9.8365E-01
0.51406	4.3560E+00	9.9159E-01
0.51518	4.3639E+00	1.0041E+00
0.51630	4.3855E+00	1.0143E+00
0.51743	4.4048E+00	1.0245E+00
0.51855	4.4286E+00	1.0324E+00
0.51968	4.4546E+00	1.0381E+00
0.52080	4.4785E+00	1.0392E+00
0.52193	4.4977E+00	1.0313E+00
0.52305	4.5193E+00	1.0233E+00
0.52418	4.5317E+00	1.0109E+00
0.52530	4.5442E+00	9.9612E-01
0.52643	4.5590E+00	9.7912E-01
0.52756	4.5714E+00	9.6438E-01
0.52868	4.5748E+00	9.4737E-01
0.52981	4.5646E+00	9.2356E-01
0.53094	4.5567E+00	9.0202E-01
0.53207	4.5420E+00	8.8274E-01
0.53320	4.5249E+00	8.6574E-01
0.53432	4.5057E+00	8.4646E-01
0.53545	4.4819E+00	8.2719E-01
0.53658	4.4512E+00	8.0791E-01
0.53771	4.4342E+00	7.9317E-01
0.53884	4.4127E+00	7.8297E-01
0.53997	4.3889E+00	7.7503E-01
0.54110	4.3605E+00	7.6710E-01
0.54224	4.3367E+00	7.6143E-01
0.54337	4.3152E+00	7.5803E-01
0.54450	4.3005E+00	7.5463E-01
0.54563	4.2766E+00	7.4896E-01
0.54676	4.2596E+00	7.4556E-01
0.54789	4.2449E+00	7.4215E-01
0.54903	4.2324E+00	7.4102E-01
0.55016	4.2154E+00	7.3535E-01
0.55129	4.2007E+00	7.3422E-01
0.55243	4.1950E+00	7.3989E-01
0.55356	4.1871E+00	7.4102E-01
0.55470	4.1791E+00	7.4215E-01
0.55583	4.1712E+00	7.4329E-01
0.55697	4.1701E+00	7.4669E-01
0.55810	4.1712E+00	7.5009E-01
0.55924	4.1723E+00	7.4896E-01
0.56037	4.1757E+00	7.5009E-01
0.56151	4.1859E+00	7.4442E-01
0.56265	4.1916E+00	7.3875E-01
0.56378	4.1905E+00	7.3082E-01
0.56492	4.1961E+00	7.2515E-01
0.56606	4.2086E+00	7.2628E-01
0.56720	4.2188E+00	7.2515E-01
0.56834	4.2245E+00	7.1948E-01
0.56947	4.2302E+00	7.1381E-01
0.57061	4.2358E+00	7.0814E-01
0.57175	4.2438E+00	7.0020E-01
0.57289	4.2517E+00	6.9000E-01
0.57403	4.2596E+00	6.7980E-01
0.57517	4.2698E+00	6.7186E-01
0.57631	4.2732E+00	6.6166E-01
0.57745	4.2766E+00	6.5145E-01
0.57860	4.2778E+00	6.3898E-01
0.57974	4.2766E+00	6.2651E-01
0.58088	4.2778E+00	6.1857E-01
0.58202	4.2744E+00	6.0610E-01
0.58316	4.2710E+00	5.9363E-01
0.58431	4.2630E+00	5.8569E-01
0.58545	4.2551E+00	5.7549E-01
0.58659	4.2404E+00	5.6528E-01
0.58774	4.2256E+00	5.5508E-01
0.58888	4.2132E+00	5.4714E-01
0.59002	4.1984E+00	5.4147E-01
0.59117	4.1769E+00	5.3580E-01
0.59231	4.1576E+00	5.3240E-01
0.59346	4.1406E+00	5.2673E-01
0.59460	4.1190E+00	5.2787E-01
0.59575	4.0952E+00	5.2673E-01
0.59690	4.0646E+00	5.2787E-01
0.59804	4.0340E+00	5.2673E-01
0.59919	4.0057E+00	5.3014E-01
0.60034	3.9751E+00	5.3807E-01
0.60148	3.9467E+00	5.4601E-01
0.60263	3.9184E+00	5.5848E-01
0.60378	3.8900E+00	5.7095E-01
0.60493	3.8571E+00	5.8796E-01
0.60607	3.8220E+00	6.0950E-01
0.60722	3.7868E+00	6.3331E-01
0.60837	3.7540E+00	6.6392E-01
0.60952	3.7188E+00	6.9227E-01
0.61067	3.6905E+00	7.3422E-01
0.61182	3.6599E+00	7.8751E-01
0.61297	3.6361E+00	8.4079E-01
0.61412	3.6100E+00	9.0315E-01
0.61527	3.5884E+00	9.7912E-01
0.61642	3.5805E+00	1.0619E+00
0.61758	3.5794E+00	1.1492E+00
0.61873	3.5986E+00	1.2410E+00
0.61988	3.6270E+00	1.3329E+00
0.62103	3.6735E+00	1.4156E+00
0.62219	3.7358E+00	1.4916E+00
0.62334	3.8209E+00	1.5426E+00
0.62449	3.9172E+00	1.5551E+00
0.62565	4.0295E+00	1.5381E+00
0.62680	4.1372E+00	1.4780E+00
0.62795	4.2608E+00	1.3907E+00
0.62911	4.3889E+00	1.2852E+00
0.63026	4.5193E+00	1.1707E+00
0.63142	4.6315E+00	1.0676E+00
0.63257	4.7234E+00	9.7118E-01
0.63373	4.7925E+00	8.7934E-01
0.63488	4.8413E+00	7.9658E-01
0.63604	4.8673E+00	7.2061E-01
0.63720	4.8753E+00	6.5372E-01
0.63835	4.8628E+00	5.9136E-01
0.63951	4.8458E+00	5.3580E-01
0.64067	4.8220E+00	4.9010E-01
0.64183	4.7937E+00	4.5115E-01
0.64298	4.7585E+00	4.1359E-01
0.64414	4.7302E+00	3.8544E-01
0.64530	4.7018E+00	3.5822E-01
0.64646	4.6757E+00	3.3566E-01
0.64762	4.6519E+00	3.1441E-01
0.64878	4.6304E+00	2.9727E-01
0.64994	4.6134E+00	2.8414E-01
0.65110	4.5941E+00	2.7255E-01
0.65226	4.5680E+00	2.6166E-01
0.65342	4.5442E+00	2.4705E-01
0.65458	4.5272E+00	2.3656E-01
0.65574	4.5102E+00	2.2904E-01
0.65690	4.4955E+00	2.1802E-01
0.65806	4.4785E+00	2.1330E-01
0.65923	4.4615E+00	2.0376E-01
0.66039	4.4444E+00	1.9930E-01
0.66155	4.4274E+00	1.9046E-01
0.66271	4.4127E+00	1.8478E-01
0.66388	4.3980E+00	1.8419E-01
0.66504	4.3878E+00	1.7777E-01
0.66620	4.3753E+00	1.7021E-01
0.66737	4.3605E+00	1.7020E-01
0.66853	4.3435E+00	1.6763E-01
0.66970	4.3243E+00	1.6248E-01
0.67086	4.3050E+00	1.5967E-01
0.67203	4.2902E+00	1.5625E-01
0.67319	4.2778E+00	1.5625E-01
0.67436	4.2653E+00	1.5625E-01
0.67552	4.2551E+00	1.5625E-01
0.67669	4.2404E+00	1.5625E-01
0.67786	4.2256E+00	1.5613E-01
0.67902	4.2177E+00	1.4989E-01
0.68019	4.2143E+00	1.4286E-01
0.68136	4.2063E+00	1.4286E-01
0.68253	4.1939E+00	1.4286E-01
0.68369	4.1837E+00	1.4286E-01
0.68486	4.1689E+00	1.4286E-01
0.68603	4.1542E+00	1.4286E-01
0.68720	4.1395E+00	1.4286E-01
0.68837	4.1293E+00	1.4284E-01
0.68954	4.1213E+00	1.4046E-01
0.69071	4.1156E+00	1.3317E-01
0.69188	4.1100E+00	1.3000E-01
0.69305	4.0998E+00	1.3000E-01
0.69422	4.0896E+00	1.3000E-01
0.69539	4.0794E+00	1.2992E-01
0.69656	4.0692E+00	1.2422E-01
0.69773	4.0635E+00	1.1765E-01
0.69890	4.0578E+00	1.1765E-01
0.70007	4.0499E+00	1.1758E-01
0.70124	4.0397E+00	1.1213E-01
0.70242	4.0317E+00	1.0577E-01
0.70359	4.0238E+00	1.0577E-01
0.70476	4.0181E+00	1.0576E-01
0.70593	4.0102E+00	1.0213E-01
0.70711	4.0045E+00	9.4043E-02
0.70828	3.9989E+00	8.6198E-02
0.70946	3.9909E+00	8.3301E-02
0.71063	3.9875E+00	7.8512E-02
0.71180	3.9864E+00	7.2724E-02
0.71298	3.9830E+00	6.8132E-02
0.71415	3.9796E+00	6.0914E-02
0.71533	3.9717E+00	5.3741E-02
0.71650	3.9683E+00	4.5684E-02
0.71768	3.9626E+00	4.0360E-02
0.71886	3.9637E+00	3.1270E-02
0.72003	3.9649E+00	2.1249E-02
0.72121	3.9683E+00	1.1576E-02
0.72239	3.9671E+00	2.2856E-03
0.72356	3.9592E+00	0.0000E+00
0.72474	3.9535E+00	0.0000E+00
0.72592	3.9478E+00	0.0000E+00
0.72710	3.9444E+00	0.0000E+00
0.72827	3.9365E+00	0.0000E+00
0.72945	3.9354E+00	0.0000E+00
0.73063	3.9410E+00	0.0000E+00
0.73181	3.9376E+00	0.0000E+00
0.73299	3.9297E+00	0.0000E+00
0.73417	3.9240E+00	0.0000E+00
0.73535	3.9161E+00	0.0000E+00
0.73653	3.9036E+00	0.0000E+00
0.73771	3.8980E+00	0.0000E+00
0.73889	3.8878E+00	0.0000E+00
0.74007	3.8889E+00	0.0000E+00
0.74125	3.8810E+00	0.0000E+00
0.74243	3.8821E+00	0.0000E+00
0.74361	3.8855E+00	0.0000E+00
0.74480	3.8889E+00	0.0000E+00
0.74598	3.8855E+00	0.0000E+00
0.74716	3.8730E+00	0.0000E+00
0.74834	3.8605E+00	0.0000E+00
0.74952	3.8526E+00	0.0000E+00
0.75071	3.8424E+00	0.0000E+00
0.75189	3.8367E+00	0.0000E+00
0.75307	3.8333E+00	0.0000E+00
0.75426	3.8299E+00	0.0000E+00
0.75544	3.8197E+00	0.0000E+00
0.75663	3.8050E+00	0.0000E+00
0.75781	3.7971E+00	0.0000E+00
0.75900	3.7868E+00	0.0000E+00
0.76018	3.7812E+00	0.0000E+00
0.76137	3.7778E+00	0.0000E+00
0.76255	3.7698E+00	0.0000E+00
0.76374	3.7528E+00	0.0000E+00
0.76492	3.7245E+00	0.0000E+00
0.76611	3.7075E+00	0.0000E+00
0.76730	3.7041E+00	0.0000E+00
0.76848	3.6984E+00	0.0000E+00
0.76967	3.6814E+00	0.0000E+00
0.77086	3.6508E+00	0.0000E+00
0.77205	3.6293E+00	0.0000E+00
0.77323	3.6190E+00	0.0000E+00
0.77442	3.6111E+00	0.0000E+00
0.77561	3.6054E+00	0.0000E+00
0.77680	3.5930E+00	0.0000E+00
0.77799	3.5873E+00	0.0000E+00
0.77918	3.5544E+00	0.0000E+00
0.78037	3.5351E+00	0.0000E+00
0.78156	3.5136E+00	0.0000E+00
0.78274	3.4989E+00	0.0000E+00
0.78393	3.4637E+00	0.0000E+00
0.78513	3.4399E+00	0.0000E+00
0.78632	3.4252E+00	0.0000E+00
0.78751	3.4059E+00	0.0000E+00
0.78870	3.3707E+00	0.0000E+00
0.78989	3.3492E+00	0.0000E+00
0.79108	3.3571E+00	0.0000E+00
0.79227	3.3447E+00	0.0000E+00
0.79346	3.2982E+00	0.0000E+00
0.79466	3.2086E+00	0.0000E+00
0.79585	3.1281E+00	0.0000E+00
0.79704	3.0884E+00	0.0000E+00
0.79823	3.0646E+00	0.0000E+00
0.79943	2.9955E+00	0.0000E+00
0.80062	2.9535E+00	0.0000E+00
0.80181	2.9365E+00	0.0000E+00
0.80301	2.9603E+00	0.0000E+00
0.80420	2.9592E+00	0.0000E+00
0.80540	2.9376E+00	0.0000E+00
0.80659	2.9116E+00	0.0000E+00
0.80779	2.9240E+00	0.0000E+00
0.80898	2.9388E+00	0.0000E+00
0.81018	2.9512E+00	0.0000E+00
0.81137	2.9048E+00	0.0000E+00
0.81257	2.8810E+00	0.0000E+00
0.81376	2.8390E+00	0.0000E+00
0.81496	2.8288E+00	0.0000E+00
0.81616	2.8707E+00	0.0000E+00
0.81735	2.9218E+00	0.0000E+00
0.81855	2.9388E+00	0.0000E+00
0.81975	2.9218E+00	0.0000E+00
0.82094	2.9184E+00	0.0000E+00
0.82214	2.9580E+00	0.0000E+00
0.82334	2.9342E+00	0.0000E+00
0.82454	2.8628E+00	0.0000E+00
0.82574	2.8209E+00	0.0000E+00
0.82694	2.8673E+00	0.0000E+00
0.82813	2.9252E+00	0.0000E+00
0.82933	2.9082E+00	0.0000E+00
0.83053	2.7891E+00	0.0000E+00
0.83173	2.7132E+00	0.0000E+00
0.83293	2.6417E+00	0.0000E+00
0.83413	2.5975E+00	0.0000E+00
0.83533	2.5397E+00	0.0000E+00
0.83653	2.5794E+00	0.0000E+00
0.83773	2.5941E+00	0.0000E+00
0.83893	2.5113E+00	0.0000E+00
0.84013	2.4399E+00	0.0000E+00
0.84134	2.4229E+00	0.0000E+00
0.84254	2.4830E+00	0.0000E+00
0.84374	2.3934E+00	0.0000E+00
0.84494	2.3719E+00	0.0000E+00
0.84614	2.3549E+00	0.0000E+00
0.84735	2.4444E+00	0.0000E+00
0.84855	2.5091E+00	0.0000E+00
0.84975	2.5714E+00	0.0000E+00
