Material: main / WS2 / Hsu-1L
Optical constants. C. Hsu, R. Frisenda, R. Schmidt, A. Arora, S. M. de Vasconcellos, R. Bratschitsch, H. S. J. van der Zant, A. Castellanos-Gomez. Thickness-dependent refractive index of 1L, 2L, and 3L MoS2, MoSe2, WS2, and WSe2, Adv. Optical Mater. 7, 1900239 (2019) (Numerical data kindly provided by Andres Castellanos-Gomez)
Comments: Monolayer (1-layer, 1L)
Specs: {"n_absolute": true, "wavelength_vacuum": true, "film_thickness": "1L"}
wavelength (um)	n	k
0.3970	4.5714E+00	2.6864E+00
0.3981	3.7880E+00	2.2159E+00
0.3991	3.6848E+00	2.2102E+00
0.4002	3.6995E+00	2.2068E+00
0.4013	3.6893E+00	2.1785E+00
0.4024	3.6315E+00	2.1456E+00
0.4035	3.6032E+00	2.1444E+00
0.4046	3.6406E+00	2.1569E+00
0.4057	3.6349E+00	2.1376E+00
0.4068	3.5340E+00	2.0775E+00
0.4078	3.3991E+00	2.0016E+00
0.4089	3.3844E+00	1.9619E+00
0.4100	3.4240E+00	1.9222E+00
0.4111	3.5045E+00	1.8803E+00
0.4122	3.5057E+00	1.8315E+00
0.4133	3.5045E+00	1.8077E+00
0.4144	3.4467E+00	1.7794E+00
0.4155	3.4070E+00	1.7419E+00
0.4166	3.3447E+00	1.7136E+00
0.4177	3.3299E+00	1.6853E+00
0.4188	3.3061E+00	1.6728E+00
0.4198	3.2596E+00	1.6626E+00
0.4209	3.2222E+00	1.6501E+00
0.4220	3.1417E+00	1.6490E+00
0.4231	3.0317E+00	1.6342E+00
0.4242	2.8878E+00	1.6286E+00
0.4253	2.7642E+00	1.6184E+00
0.4264	2.7222E+00	1.6195E+00
0.4275	2.7188E+00	1.6320E+00
0.4286	2.7200E+00	1.6467E+00
0.4297	2.7370E+00	1.6478E+00
0.4308	2.8197E+00	1.6354E+00
0.4319	3.0000E+00	1.6116E+00
0.4330	3.1848E+00	1.6014E+00
0.4341	3.3469E+00	1.5980E+00
0.4352	3.5113E+00	1.5878E+00
0.4363	3.7007E+00	1.5798E+00
0.4374	3.8946E+00	1.5673E+00
0.4385	4.0658E+00	1.5571E+00
0.4396	4.2166E+00	1.5379E+00
0.4407	4.3696E+00	1.5254E+00
0.4418	4.5295E+00	1.5175E+00
0.4429	4.6939E+00	1.5073E+00
0.4440	4.8356E+00	1.4925E+00
0.4451	4.9569E+00	1.4778E+00
0.4462	5.0737E+00	1.4630E+00
0.4473	5.1927E+00	1.4483E+00
0.4484	5.3073E+00	1.4336E+00
0.4495	5.4082E+00	1.4097E+00
0.4506	5.4705E+00	1.3859E+00
0.4517	5.5283E+00	1.3667E+00
0.4528	5.5635E+00	1.3429E+00
0.4539	5.6009E+00	1.3145E+00
0.4550	5.6179E+00	1.2816E+00
0.4561	5.6304E+00	1.2510E+00
0.4572	5.6315E+00	1.2295E+00
0.4583	5.6304E+00	1.2125E+00
0.4594	5.6338E+00	1.1932E+00
0.4605	5.6304E+00	1.1626E+00
0.4617	5.6247E+00	1.1410E+00
0.4628	5.5941E+00	1.1172E+00
0.4639	5.5544E+00	1.0934E+00
0.4650	5.5261E+00	1.0719E+00
0.4661	5.5091E+00	1.0503E+00
0.4672	5.4966E+00	1.0356E+00
0.4683	5.4683E+00	1.0186E+00
0.4694	5.4376E+00	1.0039E+00
0.4705	5.4138E+00	9.8231E-01
0.4716	5.3878E+00	9.6077E-01
0.4727	5.3571E+00	9.3922E-01
0.4739	5.3220E+00	9.2675E-01
0.4750	5.2937E+00	9.1655E-01
0.4761	5.2653E+00	9.0634E-01
0.4772	5.2302E+00	8.9387E-01
0.4783	5.1905E+00	8.8367E-01
0.4794	5.1576E+00	8.8027E-01
0.4805	5.1270E+00	8.7913E-01
0.4816	5.0896E+00	8.6893E-01
0.4827	5.0612E+00	8.6553E-01
0.4839	5.0261E+00	8.6439E-01
0.4850	4.9977E+00	8.6553E-01
0.4861	4.9603E+00	8.6893E-01
0.4872	4.9320E+00	8.7233E-01
0.4883	4.8855E+00	8.7347E-01
0.4894	4.8481E+00	8.7913E-01
0.4906	4.8084E+00	8.8480E-01
0.4917	4.7732E+00	8.9727E-01
0.4928	4.7381E+00	9.1201E-01
0.4939	4.7007E+00	9.2675E-01
0.4950	4.6633E+00	9.4603E-01
0.4961	4.6281E+00	9.6303E-01
0.4973	4.5998E+00	9.8684E-01
0.4984	4.5782E+00	1.0129E+00
0.4995	4.5567E+00	1.0435E+00
0.5006	4.5238E+00	1.0719E+00
0.5017	4.4864E+00	1.1048E+00
0.5028	4.4580E+00	1.1331E+00
0.5040	4.4388E+00	1.1728E+00
0.5051	4.4263E+00	1.2125E+00
0.5062	4.4116E+00	1.2590E+00
0.5073	4.4150E+00	1.3032E+00
0.5084	4.4138E+00	1.3451E+00
0.5096	4.4218E+00	1.3803E+00
0.5107	4.4320E+00	1.4086E+00
0.5118	4.4467E+00	1.4324E+00
0.5129	4.4796E+00	1.4449E+00
0.5141	4.5079E+00	1.4528E+00
0.5152	4.5476E+00	1.4494E+00
0.5163	4.5850E+00	1.4415E+00
0.5174	4.6066E+00	1.4290E+00
0.5186	4.6213E+00	1.4052E+00
0.5197	4.6338E+00	1.3769E+00
0.5208	4.6463E+00	1.3372E+00
0.5219	4.6429E+00	1.2975E+00
0.5231	4.6372E+00	1.2578E+00
0.5242	4.6247E+00	1.2181E+00
0.5253	4.6145E+00	1.1785E+00
0.5264	4.6020E+00	1.1433E+00
0.5276	4.5896E+00	1.1172E+00
0.5287	4.5794E+00	1.0912E+00
0.5298	4.5624E+00	1.0696E+00
0.5309	4.5408E+00	1.0526E+00
0.5321	4.5261E+00	1.0379E+00
0.5332	4.5181E+00	1.0209E+00
0.5343	4.5057E+00	1.0039E+00
0.5355	4.4887E+00	9.8911E-01
0.5366	4.4762E+00	9.7210E-01
0.5377	4.4751E+00	9.5963E-01
0.5388	4.4807E+00	9.4489E-01
0.5400	4.4841E+00	9.3242E-01
0.5411	4.4898E+00	9.2449E-01
0.5422	4.4977E+00	9.1882E-01
0.5434	4.5079E+00	9.0861E-01
0.5445	4.5227E+00	9.0068E-01
0.5456	4.5306E+00	8.8820E-01
0.5468	4.5454E+00	8.7120E-01
0.5479	4.5624E+00	8.5419E-01
0.5490	4.5839E+00	8.3492E-01
0.5502	4.6100E+00	8.1791E-01
0.5513	4.6361E+00	7.9637E-01
0.5524	4.6576E+00	7.7483E-01
0.5536	4.6814E+00	7.5102E-01
0.5547	4.7029E+00	7.2721E-01
0.5558	4.7132E+00	7.0340E-01
0.5570	4.7211E+00	6.8186E-01
0.5581	4.7336E+00	6.5805E-01
0.5592	4.7460E+00	6.3424E-01
0.5604	4.7608E+00	6.0816E-01
0.5615	4.7732E+00	5.8435E-01
0.5626	4.7789E+00	5.6054E-01
0.5638	4.7755E+00	5.4127E-01
0.5649	4.7789E+00	5.1972E-01
0.5661	4.7846E+00	4.9695E-01
0.5672	4.7812E+00	4.7590E-01
0.5683	4.7755E+00	4.5092E-01
0.5695	4.7494E+00	4.3158E-01
0.5706	4.7256E+00	4.1565E-01
0.5718	4.7063E+00	3.9715E-01
0.5729	4.6893E+00	3.7941E-01
0.5740	4.6633E+00	3.6573E-01
0.5752	4.6236E+00	3.5383E-01
0.5763	4.5884E+00	3.4639E-01
0.5775	4.5533E+00	3.3654E-01
0.5786	4.5159E+00	3.2874E-01
0.5797	4.4785E+00	3.2442E-01
0.5809	4.4501E+00	3.1932E-01
0.5820	4.4150E+00	3.1879E-01
0.5832	4.3753E+00	3.1800E-01
0.5843	4.3265E+00	3.2634E-01
0.5854	4.2914E+00	3.3053E-01
0.5866	4.2404E+00	3.4362E-01
0.5877	4.1871E+00	3.5712E-01
0.5889	4.1406E+00	3.7504E-01
0.5900	4.0941E+00	3.9379E-01
0.5912	4.0385E+00	4.1839E-01
0.5923	3.9762E+00	4.4269E-01
0.5935	3.9206E+00	4.7298E-01
0.5946	3.8673E+00	5.0755E-01
0.5957	3.7982E+00	5.5552E-01
0.5969	3.7177E+00	6.1561E-01
0.5980	3.6304E+00	6.8704E-01
0.5992	3.5431E+00	7.6981E-01
0.6003	3.4580E+00	8.7978E-01
0.6015	3.3639E+00	1.0170E+00
0.6026	3.2744E+00	1.1859E+00
0.6038	3.1916E+00	1.4002E+00
0.6049	3.1293E+00	1.6757E+00
0.6061	3.1100E+00	2.0056E+00
0.6072	3.1610E+00	2.3560E+00
0.6084	3.3005E+00	2.6882E+00
0.6095	3.5488E+00	2.9138E+00
0.6107	3.9059E+00	2.9603E+00
0.6118	4.3673E+00	2.7687E+00
0.6130	4.8923E+00	2.4002E+00
0.6141	5.3855E+00	1.9909E+00
0.6153	5.7313E+00	1.6224E+00
0.6164	5.8821E+00	1.3038E+00
0.6176	5.8900E+00	1.0306E+00
0.6187	5.8209E+00	8.1176E-01
0.6199	5.7132E+00	6.5189E-01
0.6210	5.6032E+00	5.3794E-01
0.6222	5.5023E+00	4.6143E-01
0.6233	5.4218E+00	4.0748E-01
0.6245	5.3549E+00	3.6677E-01
0.6256	5.2993E+00	3.3445E-01
0.6268	5.2506E+00	3.1140E-01
0.6280	5.2063E+00	2.9407E-01
0.6291	5.1621E+00	2.8038E-01
0.6303	5.1247E+00	2.6598E-01
0.6314	5.0918E+00	2.5129E-01
0.6326	5.0703E+00	2.3875E-01
0.6337	5.0465E+00	2.2433E-01
0.6349	5.0159E+00	2.1584E-01
0.6360	4.9853E+00	2.1100E-01
0.6372	4.9615E+00	2.0371E-01
0.6384	4.9399E+00	1.9475E-01
0.6395	4.9229E+00	1.8617E-01
0.6407	4.9059E+00	1.7775E-01
0.6418	4.8844E+00	1.6953E-01
0.6430	4.8696E+00	1.5960E-01
0.6441	4.8503E+00	1.5565E-01
0.6453	4.8469E+00	1.4611E-01
0.6465	4.8390E+00	1.3866E-01
0.6476	4.8333E+00	1.2998E-01
0.6488	4.8299E+00	1.2605E-01
0.6499	4.8288E+00	1.2251E-01
0.6511	4.8254E+00	1.1865E-01
0.6523	4.8220E+00	1.0878E-01
0.6534	4.8141E+00	1.0377E-01
0.6546	4.8016E+00	9.7504E-02
0.6557	4.7959E+00	9.4340E-02
0.6569	4.7857E+00	9.4293E-02
0.6581	4.7800E+00	8.7755E-02
0.6592	4.7698E+00	8.3333E-02
0.6604	4.7619E+00	8.0051E-02
0.6616	4.7608E+00	7.2724E-02
0.6627	4.7528E+00	6.9570E-02
0.6639	4.7449E+00	6.3614E-02
0.6650	4.7347E+00	5.6663E-02
0.6662	4.7290E+00	4.8291E-02
0.6674	4.7347E+00	3.6416E-02
0.6685	4.7290E+00	3.3893E-02
0.6697	4.7256E+00	2.8727E-02
0.6709	4.7200E+00	2.2478E-02
0.6720	4.7256E+00	1.0424E-02
0.6732	4.7290E+00	5.7235E-03
0.6744	4.7324E+00	1.1338E-03
0.6755	4.7313E+00	0.0000E+00
0.6767	4.7211E+00	0.0000E+00
0.6779	4.7109E+00	0.0000E+00
0.6790	4.7029E+00	0.0000E+00
0.6802	4.7018E+00	0.0000E+00
0.6814	4.7007E+00	0.0000E+00
0.6825	4.6973E+00	0.0000E+00
0.6837	4.6984E+00	0.0000E+00
0.6849	4.6973E+00	0.0000E+00
0.6860	4.6871E+00	0.0000E+00
0.6872	4.6791E+00	0.0000E+00
0.6884	4.6825E+00	0.0000E+00
0.6895	4.6905E+00	0.0000E+00
0.6907	4.6871E+00	0.0000E+00
0.6919	4.6814E+00	0.0000E+00
0.6930	4.6689E+00	0.0000E+00
0.6942	4.6678E+00	0.0000E+00
0.6954	4.6576E+00	0.0000E+00
0.6966	4.6633E+00	0.0000E+00
0.6977	4.6667E+00	0.0000E+00
0.6989	4.6633E+00	0.0000E+00
0.7001	4.6599E+00	0.0000E+00
0.7012	4.6565E+00	0.0000E+00
0.7024	4.6621E+00	0.0000E+00
0.7036	4.6542E+00	0.0000E+00
0.7048	4.6417E+00	0.0000E+00
0.7059	4.6247E+00	0.0000E+00
0.7071	4.6122E+00	0.0000E+00
0.7083	4.5998E+00	0.0000E+00
0.7095	4.5873E+00	0.0000E+00
0.7106	4.5771E+00	0.0000E+00
0.7118	4.5714E+00	0.0000E+00
0.7130	4.5703E+00	0.0000E+00
0.7142	4.5533E+00	0.0000E+00
0.7153	4.5385E+00	0.0000E+00
0.7165	4.5329E+00	0.0000E+00
0.7177	4.5272E+00	0.0000E+00
0.7189	4.5125E+00	0.0000E+00
0.7200	4.4932E+00	0.0000E+00
0.7212	4.4830E+00	0.0000E+00
0.7224	4.4637E+00	0.0000E+00
0.7236	4.4308E+00	0.0000E+00
0.7247	4.4070E+00	0.0000E+00
0.7259	4.3991E+00	0.0000E+00
0.7271	4.4002E+00	0.0000E+00
0.7283	4.3810E+00	0.0000E+00
0.7295	4.3413E+00	0.0000E+00
0.7306	4.3107E+00	0.0000E+00
0.7318	4.2914E+00	0.0000E+00
0.7330	4.2721E+00	0.0000E+00
0.7342	4.2460E+00	0.0000E+00
0.7353	4.2177E+00	0.0000E+00
0.7365	4.1984E+00	0.0000E+00
0.7377	4.1723E+00	0.0000E+00
0.7389	4.1349E+00	0.0000E+00
0.7401	4.0930E+00	0.0000E+00
0.7413	4.0510E+00	0.0000E+00
0.7424	4.0181E+00	0.0000E+00
0.7436	3.9898E+00	0.0000E+00
0.7448	3.9683E+00	0.0000E+00
0.7460	3.9422E+00	0.0000E+00
0.7472	3.9025E+00	0.0000E+00
0.7483	3.8492E+00	0.0000E+00
0.7495	3.8027E+00	0.0000E+00
0.7507	3.7812E+00	0.0000E+00
0.7519	3.7732E+00	0.0000E+00
0.7531	3.7630E+00	0.0000E+00
0.7543	3.7347E+00	0.0000E+00
0.7554	3.7018E+00	0.0000E+00
0.7566	3.6893E+00	0.0000E+00
0.7578	3.6769E+00	0.0000E+00
0.7590	3.6395E+00	0.0000E+00
0.7602	3.5816E+00	0.0000E+00
0.7614	3.5420E+00	0.0000E+00
0.7626	3.5295E+00	0.0000E+00
0.7637	3.4966E+00	0.0000E+00
0.7649	3.4546E+00	0.0000E+00
0.7661	3.4150E+00	0.0000E+00
0.7673	3.4093E+00	0.0000E+00
0.7685	3.4082E+00	0.0000E+00
0.7697	3.3980E+00	0.0000E+00
0.7709	3.3719E+00	0.0000E+00
0.7720	3.3322E+00	0.0000E+00
0.7732	3.3197E+00	0.0000E+00
0.7744	3.3413E+00	0.0000E+00
0.7756	3.3673E+00	0.0000E+00
0.7768	3.3594E+00	0.0000E+00
0.7780	3.3583E+00	0.0000E+00
0.7792	3.3526E+00	0.0000E+00
0.7804	3.3583E+00	0.0000E+00
0.7816	3.3345E+00	0.0000E+00
0.7827	3.2902E+00	0.0000E+00
0.7839	3.2619E+00	0.0000E+00
0.7851	3.2812E+00	0.0000E+00
0.7863	3.3005E+00	0.0000E+00
0.7875	3.3084E+00	0.0000E+00
0.7887	3.2868E+00	0.0000E+00
0.7899	3.2812E+00	0.0000E+00
0.7911	3.2846E+00	0.0000E+00
0.7923	3.2789E+00	0.0000E+00
0.7935	3.2574E+00	0.0000E+00
0.7947	3.2200E+00	0.0000E+00
0.7958	3.2166E+00	0.0000E+00
0.7970	3.2472E+00	0.0000E+00
0.7982	3.2914E+00	0.0000E+00
0.7994	3.2789E+00	0.0000E+00
0.8006	3.2619E+00	0.0000E+00
0.8018	3.2653E+00	0.0000E+00
0.8030	3.2868E+00	0.0000E+00
0.8042	3.3265E+00	0.0000E+00
0.8054	3.3390E+00	0.0000E+00
0.8066	3.3537E+00	0.0000E+00
0.8078	3.3299E+00	0.0000E+00
0.8090	3.3447E+00	0.0000E+00
0.8102	3.3912E+00	0.0000E+00
0.8114	3.4127E+00	0.0000E+00
0.8126	3.4342E+00	0.0000E+00
0.8138	3.4354E+00	0.0000E+00
0.8150	3.4637E+00	0.0000E+00
0.8162	3.5306E+00	0.0000E+00
0.8174	3.5385E+00	0.0000E+00
0.8185	3.4943E+00	0.0000E+00
0.8197	3.4478E+00	0.0000E+00
0.8209	3.4603E+00	0.0000E+00
0.8221	3.5454E+00	0.0000E+00
0.8233	3.5737E+00	0.0000E+00
0.8245	3.5658E+00	0.0000E+00
0.8257	3.5714E+00	0.0000E+00
0.8269	3.5771E+00	0.0000E+00
0.8281	3.5918E+00	0.0000E+00
0.8293	3.5680E+00	0.0000E+00
0.8305	3.5896E+00	0.0000E+00
0.8317	3.6361E+00	0.0000E+00
0.8329	3.6508E+00	0.0000E+00
0.8341	3.5930E+00	0.0000E+00
0.8353	3.5465E+00	0.0000E+00
0.8365	3.5431E+00	0.0000E+00
0.8377	3.5488E+00	0.0000E+00
0.8389	3.5181E+00	0.0000E+00
0.8401	3.5578E+00	0.0000E+00
0.8413	3.6043E+00	0.0000E+00
0.8425	3.6531E+00	0.0000E+00
0.8437	3.6474E+00	0.0000E+00
0.8449	3.7098E+00	0.0000E+00
0.8461	3.7766E+00	0.0000E+00
0.8473	3.8481E+00	0.0000E+00
0.8485	3.8492E+00	0.0000E+00
0.8498	3.8095E+00	0.0000E+00
