Material: inorganic / ZrTe5 / Guo-gamma
Optical constants. Z. Guo, H. Gu, M. Fang, B. Song, W. Wang, X. Chen, C. Zhang, H. Jiang, L. Wang, S. Liu. Complete dielectric tensor and giant optical anisotropy in quasi-one-dimensional ZrTe5, ACS Mater. Lett., 3, 6525–534 (2021) (Numerical data kindly provided by Zhengfeng Guo)
Comments: nγ, kγ; room temperature.
wavelength (um)	n	k
0.1930	1.06239	1.18300
0.1960	1.06203	1.13427
0.1990	1.04957	1.09926
0.2020	1.03148	1.07801
0.2050	1.01225	1.06863
0.2080	0.99449	1.06860
0.2110	0.97951	1.07560
0.2140	0.96781	1.08767
0.2170	0.95942	1.10331
0.2200	0.95413	1.12140
0.2230	0.95167	1.14113
0.2260	0.95170	1.16191
0.2290	0.95392	1.18331
0.2320	0.95806	1.20504
0.2350	0.96386	1.22688
0.2380	0.97113	1.24868
0.2410	0.97969	1.27033
0.2440	0.98938	1.29176
0.2470	1.00009	1.31291
0.2500	1.01170	1.33374
0.2530	1.02414	1.35422
0.2560	1.03733	1.37433
0.2590	1.05122	1.39404
0.2620	1.06575	1.41336
0.2650	1.08089	1.43225
0.2680	1.09660	1.45071
0.2710	1.11285	1.46872
0.2740	1.12963	1.48627
0.2770	1.14691	1.50334
0.2800	1.16468	1.51990
0.2830	1.18291	1.53593
0.2860	1.20161	1.55141
0.2890	1.22074	1.56632
0.2920	1.24030	1.58060
0.2950	1.26026	1.59424
0.2980	1.28060	1.60719
0.3010	1.30130	1.61942
0.3040	1.32232	1.63089
0.3070	1.34362	1.64155
0.3100	1.36517	1.65137
0.3130	1.38692	1.66031
0.3160	1.40880	1.66834
0.3190	1.43076	1.67542
0.3220	1.45273	1.68153
0.3250	1.47463	1.68665
0.3280	1.49639	1.69076
0.3310	1.51793	1.69388
0.3340	1.53915	1.69600
0.3370	1.55999	1.69715
0.3400	1.58034	1.69735
0.3430	1.60014	1.69665
0.3460	1.61931	1.69509
0.3490	1.63777	1.69274
0.3520	1.65546	1.68966
0.3550	1.67233	1.68593
0.3580	1.68835	1.68164
0.3610	1.70347	1.67688
0.3640	1.71767	1.67173
0.3670	1.73096	1.66630
0.3700	1.74334	1.66068
0.3730	1.75484	1.65496
0.3760	1.76549	1.64924
0.3790	1.77535	1.64358
0.3820	1.78450	1.63807
0.3850	1.79302	1.63276
0.3880	1.80103	1.62768
0.3910	1.80864	1.62282
0.3940	1.81598	1.61815
0.3970	1.82317	1.61357
0.4000	1.83027	1.60891
0.4030	1.83730	1.60399
0.4060	1.84417	1.59857
0.4090	1.85066	1.59248
0.4120	1.85645	1.58565
0.4150	1.86122	1.57815
0.4180	1.86466	1.57022
0.4210	1.86663	1.56220
0.4240	1.86713	1.55445
0.4270	1.86627	1.54728
0.4300	1.86427	1.54092
0.4330	1.86135	1.53548
0.4360	1.85773	1.53100
0.4390	1.85359	1.52747
0.4420	1.84908	1.52485
0.4450	1.84429	1.52309
0.4480	1.83933	1.52213
0.4510	1.83424	1.52192
0.4540	1.82908	1.52240
0.4570	1.82388	1.52354
0.4600	1.81866	1.52529
0.4630	1.81346	1.52762
0.4660	1.80829	1.53050
0.4690	1.80317	1.53391
0.4720	1.79812	1.53782
0.4750	1.79315	1.54222
0.4780	1.78828	1.54709
0.4810	1.78352	1.55241
0.4840	1.77890	1.55816
0.4870	1.77443	1.56432
0.4900	1.77011	1.57089
0.4930	1.76598	1.57784
0.4960	1.76205	1.58515
0.4990	1.75832	1.59281
0.5020	1.75483	1.60080
0.5050	1.75157	1.60909
0.5080	1.74857	1.61767
0.5110	1.74584	1.62651
0.5140	1.74340	1.63559
0.5170	1.74124	1.64488
0.5200	1.73938	1.65435
0.5230	1.73783	1.66397
0.5260	1.73658	1.67372
0.5290	1.73565	1.68355
0.5320	1.73502	1.69344
0.5350	1.73469	1.70336
0.5380	1.73466	1.71328
0.5410	1.73490	1.72315
0.5440	1.73540	1.73295
0.5470	1.73614	1.74266
0.5500	1.73709	1.75224
0.5530	1.73822	1.76168
0.5560	1.73949	1.77094
0.5590	1.74088	1.78003
0.5620	1.74234	1.78892
0.5650	1.74383	1.79762
0.5680	1.74531	1.80613
0.5710	1.74675	1.81445
0.5740	1.74810	1.82260
0.5770	1.74932	1.83061
0.5800	1.75039	1.83848
0.5830	1.75127	1.84626
0.5860	1.75195	1.85398
0.5890	1.75239	1.86167
0.5920	1.75260	1.86937
0.5950	1.75255	1.87713
0.5980	1.75225	1.88497
0.6010	1.75171	1.89295
0.6040	1.75093	1.90110
0.6070	1.74992	1.90946
0.6100	1.74871	1.91805
0.6130	1.74732	1.92691
0.6160	1.74576	1.93606
0.6190	1.74407	1.94553
0.6220	1.74227	1.95533
0.6250	1.74039	1.96549
0.6280	1.73847	1.97600
0.6310	1.73654	1.98689
0.6340	1.73461	1.99815
0.6370	1.73273	2.00978
0.6400	1.73091	2.02180
0.6430	1.72920	2.03418
0.6460	1.72760	2.04694
0.6490	1.72615	2.06006
0.6520	1.72488	2.07353
0.6550	1.72379	2.08734
0.6580	1.72292	2.10149
0.6610	1.72227	2.11596
0.6640	1.72187	2.13073
0.6670	1.72174	2.14581
0.6700	1.72189	2.16117
0.6730	1.72232	2.17680
0.6760	1.72307	2.19269
0.6790	1.72413	2.20882
0.6820	1.72551	2.22518
0.6850	1.72724	2.24176
0.6880	1.72931	2.25855
0.6910	1.73174	2.27552
0.6940	1.73454	2.29267
0.6970	1.73770	2.30998
0.7000	1.74125	2.32744
0.7030	1.74518	2.34503
0.7060	1.74951	2.36275
0.7090	1.75423	2.38058
0.7120	1.75936	2.39851
0.7150	1.76491	2.41651
0.7180	1.77086	2.43459
0.7210	1.77725	2.45272
0.7240	1.78405	2.47089
0.7270	1.79129	2.48909
0.7300	1.79897	2.50731
0.7330	1.80709	2.52552
0.7360	1.81566	2.54372
0.7390	1.82467	2.56189
0.7420	1.83414	2.58001
0.7450	1.84407	2.59807
0.7480	1.85446	2.61604
0.7510	1.86531	2.63393
0.7540	1.87663	2.65170
0.7570	1.88842	2.66934
0.7600	1.90068	2.68683
0.7630	1.91341	2.70415
0.7660	1.92661	2.72129
0.7690	1.94029	2.73822
0.7720	1.95444	2.75491
0.7750	1.96905	2.77136
0.7780	1.98413	2.78753
0.7810	1.99968	2.80341
0.7840	2.01568	2.81897
0.7870	2.03213	2.83419
0.7900	2.04903	2.84904
0.7930	2.06636	2.86351
0.7960	2.08411	2.87755
0.7990	2.10228	2.89116
0.8020	2.12084	2.90431
0.8050	2.13978	2.91697
0.8080	2.15908	2.92912
0.8110	2.17873	2.94073
0.8140	2.19871	2.95179
0.8170	2.21898	2.96227
0.8200	2.23952	2.97214
0.8230	2.26031	2.98140
0.8260	2.28132	2.99003
0.8290	2.30252	2.99800
0.8320	2.32388	3.00530
0.8350	2.34535	3.01192
0.8380	2.36692	3.01785
0.8410	2.38854	3.02309
0.8440	2.41018	3.02762
0.8470	2.43181	3.03145
0.8500	2.45337	3.03457
0.8530	2.47485	3.03699
0.8560	2.49620	3.03870
0.8590	2.51739	3.03972
0.8620	2.53838	3.04006
0.8650	2.55914	3.03973
0.8680	2.57964	3.03873
0.8710	2.59984	3.03709
0.8740	2.61972	3.03482
0.8770	2.63924	3.03193
0.8800	2.65838	3.02845
0.8830	2.67710	3.02440
0.8860	2.69539	3.01979
0.8890	2.71322	3.01466
0.8920	2.73057	3.00901
0.8950	2.74740	3.00288
0.8980	2.76371	2.99629
0.9010	2.77947	2.98926
0.9040	2.79466	2.98183
0.9070	2.80926	2.97401
0.9100	2.82325	2.96584
0.9130	2.83662	2.95734
0.9160	2.84935	2.94855
0.9190	2.86142	2.93950
0.9220	2.87283	2.93022
0.9250	2.88356	2.92075
0.9280	2.89359	2.91113
0.9310	2.90293	2.90138
0.9340	2.91157	2.89155
0.9370	2.91951	2.88168
0.9400	2.92674	2.87181
0.9430	2.93327	2.86197
0.9460	2.93910	2.85221
0.9490	2.94425	2.84257
0.9520	2.94873	2.83307
0.9550	2.95254	2.82377
0.9580	2.95572	2.81469
0.9610	2.95826	2.80588
0.9640	2.96021	2.79736
0.9670	2.96158	2.78917
0.9700	2.96239	2.78133
0.9730	2.96268	2.77387
0.9760	2.96248	2.76682
0.9790	2.96181	2.76019
0.9820	2.96071	2.75402
0.9850	2.95921	2.74830
0.9880	2.95734	2.74307
0.9910	2.95513	2.73833
0.9940	2.95262	2.73408
0.9970	2.94985	2.73034
1.0000	2.94683	2.72711
1.0075	2.93846	2.72129
1.0150	2.92927	2.71867
1.0225	2.91971	2.71915
1.0300	2.91018	2.72261
1.0375	2.90101	2.72886
1.0450	2.89250	2.73772
1.0525	2.88489	2.74895
1.0600	2.87840	2.76231
1.0675	2.87317	2.77758
1.0750	2.86933	2.79452
1.0825	2.86697	2.81291
1.0900	2.86615	2.83252
1.0975	2.86690	2.85315
1.1050	2.86924	2.87461
1.1125	2.87318	2.89672
1.1200	2.87870	2.91931
1.1275	2.88579	2.94223
1.1350	2.89443	2.96531
1.1425	2.90457	2.98832
1.1500	2.91604	3.01116
1.1575	2.92873	3.03378
1.1650	2.94259	3.05613
1.1725	2.95755	3.07816
1.1800	2.97358	3.09982
1.1875	2.99060	3.12107
1.1950	3.00858	3.14185
1.2025	3.02745	3.16213
1.2100	3.04718	3.18187
1.2175	3.06770	3.20104
1.2250	3.08899	3.21961
1.2325	3.11098	3.23755
1.2400	3.13363	3.25484
1.2475	3.15690	3.27146
1.2550	3.18074	3.28738
1.2625	3.20512	3.30260
1.2700	3.22998	3.31709
1.2775	3.25529	3.33084
1.2850	3.28100	3.34385
1.2925	3.30709	3.35610
1.3000	3.33350	3.36759
