Material: inorganic / ZrTe5 / Guo-beta
Optical constants. Z. Guo, H. Gu, M. Fang, B. Song, W. Wang, X. Chen, C. Zhang, H. Jiang, L. Wang, S. Liu. Complete dielectric tensor and giant optical anisotropy in quasi-one-dimensional ZrTe5, ACS Mater. Lett., 3, 6525–534 (2021) (Numerical data kindly provided by Zhengfeng Guo)
Comments: nβ, kβ; room temperature.
wavelength (um)	n	k
0.1930	1.48978	0.21989
0.1960	1.47835	0.19260
0.1990	1.46673	0.17050
0.2020	1.45540	0.15252
0.2050	1.44460	0.13783
0.2080	1.43443	0.12582
0.2110	1.42491	0.11602
0.2140	1.41606	0.10807
0.2170	1.40786	0.10173
0.2200	1.40033	0.09683
0.2230	1.39349	0.09322
0.2260	1.38743	0.09083
0.2290	1.38230	0.08953
0.2320	1.37830	0.08916
0.2350	1.37566	0.08945
0.2380	1.37454	0.08996
0.2410	1.37494	0.09012
0.2440	1.37653	0.08933
0.2470	1.37870	0.08722
0.2500	1.38075	0.08379
0.2530	1.38214	0.07939
0.2560	1.38262	0.07448
0.2590	1.38221	0.06952
0.2620	1.38105	0.06479
0.2650	1.37936	0.06045
0.2680	1.37732	0.05657
0.2710	1.37507	0.05313
0.2740	1.37272	0.05010
0.2770	1.37035	0.04744
0.2800	1.36799	0.04509
0.2830	1.36568	0.04302
0.2860	1.36344	0.04118
0.2890	1.36127	0.03955
0.2920	1.35918	0.03809
0.2950	1.35716	0.03678
0.2980	1.35523	0.03560
0.3010	1.35336	0.03453
0.3040	1.35157	0.03357
0.3070	1.34984	0.03270
0.3100	1.34818	0.03191
0.3130	1.34658	0.03119
0.3160	1.34503	0.03054
0.3190	1.34353	0.02994
0.3220	1.34208	0.02940
0.3250	1.34068	0.02891
0.3280	1.33931	0.02846
0.3310	1.33799	0.02806
0.3340	1.33670	0.02769
0.3370	1.33545	0.02736
0.3400	1.33423	0.02707
0.3430	1.33303	0.02681
0.3460	1.33187	0.02658
0.3490	1.33073	0.02638
0.3520	1.32961	0.02620
0.3550	1.32851	0.02606
0.3580	1.32744	0.02594
0.3610	1.32639	0.02584
0.3640	1.32535	0.02577
0.3670	1.32433	0.02573
0.3700	1.32333	0.02570
0.3730	1.32234	0.02570
0.3760	1.32137	0.02572
0.3790	1.32041	0.02576
0.3820	1.31946	0.02583
0.3850	1.31852	0.02592
0.3880	1.31760	0.02602
0.3910	1.31669	0.02615
0.3940	1.31578	0.02631
0.3970	1.31489	0.02648
0.4000	1.31400	0.02667
0.4030	1.31312	0.02689
0.4060	1.31226	0.02713
0.4090	1.31140	0.02739
0.4120	1.31054	0.02768
0.4150	1.30970	0.02798
0.4180	1.30886	0.02832
0.4210	1.30804	0.02867
0.4240	1.30722	0.02905
0.4270	1.30641	0.02945
0.4300	1.30560	0.02988
0.4330	1.30481	0.03034
0.4360	1.30403	0.03082
0.4390	1.30325	0.03132
0.4420	1.30249	0.03186
0.4450	1.30173	0.03242
0.4480	1.30099	0.03301
0.4510	1.30026	0.03363
0.4540	1.29954	0.03428
0.4570	1.29884	0.03497
0.4600	1.29815	0.03568
0.4630	1.29748	0.03642
0.4660	1.29682	0.03720
0.4690	1.29619	0.03801
0.4720	1.29557	0.03885
0.4750	1.29498	0.03972
0.4780	1.29442	0.04063
0.4810	1.29387	0.04157
0.4840	1.29336	0.04255
0.4870	1.29288	0.04356
0.4900	1.29243	0.04460
0.4930	1.29202	0.04568
0.4960	1.29164	0.04679
0.4990	1.29131	0.04794
0.5020	1.29102	0.04911
0.5050	1.29078	0.05032
0.5080	1.29058	0.05155
0.5110	1.29044	0.05281
0.5140	1.29036	0.05410
0.5170	1.29033	0.05540
0.5200	1.29037	0.05673
0.5230	1.29047	0.05808
0.5260	1.29063	0.05943
0.5290	1.29087	0.06080
0.5320	1.29118	0.06217
0.5350	1.29157	0.06355
0.5380	1.29203	0.06491
0.5410	1.29258	0.06627
0.5440	1.29320	0.06761
0.5470	1.29390	0.06893
0.5500	1.29468	0.07022
0.5530	1.29553	0.07148
0.5560	1.29647	0.07269
0.5590	1.29748	0.07386
0.5620	1.29856	0.07497
0.5650	1.29972	0.07602
0.5680	1.30093	0.07701
0.5710	1.30221	0.07793
0.5740	1.30355	0.07876
0.5770	1.30493	0.07952
0.5800	1.30635	0.08019
0.5830	1.30781	0.08077
0.5860	1.30930	0.08126
0.5890	1.31081	0.08165
0.5920	1.31233	0.08195
0.5950	1.31386	0.08216
0.5980	1.31538	0.08227
0.6010	1.31689	0.08228
0.6040	1.31839	0.08221
0.6070	1.31986	0.08204
0.6100	1.32130	0.08179
0.6130	1.32271	0.08146
0.6160	1.32407	0.08106
0.6190	1.32539	0.08058
0.6220	1.32665	0.08003
0.6250	1.32786	0.07942
0.6280	1.32901	0.07876
0.6310	1.33010	0.07804
0.6340	1.33113	0.07728
0.6370	1.33209	0.07648
0.6400	1.33299	0.07565
0.6430	1.33383	0.07479
0.6460	1.33460	0.07391
0.6490	1.33531	0.07300
0.6520	1.33596	0.07209
0.6550	1.33654	0.07116
0.6580	1.33707	0.07022
0.6610	1.33754	0.06929
0.6640	1.33795	0.06835
0.6670	1.33830	0.06742
0.6700	1.33861	0.06649
0.6730	1.33887	0.06558
0.6760	1.33907	0.06467
0.6790	1.33924	0.06378
0.6820	1.33936	0.06290
0.6850	1.33944	0.06204
0.6880	1.33948	0.06120
0.6910	1.33949	0.06037
0.6940	1.33946	0.05957
0.6970	1.33940	0.05878
0.7000	1.33931	0.05802
0.7030	1.33919	0.05728
0.7060	1.33905	0.05656
0.7090	1.33888	0.05586
0.7120	1.33869	0.05518
0.7150	1.33848	0.05453
0.7180	1.33825	0.05389
0.7210	1.33800	0.05328
0.7240	1.33773	0.05269
0.7270	1.33745	0.05213
0.7300	1.33716	0.05158
0.7330	1.33685	0.05106
0.7360	1.33653	0.05055
0.7390	1.33620	0.05007
0.7420	1.33586	0.04961
0.7450	1.33551	0.04916
0.7480	1.33516	0.04874
0.7510	1.33479	0.04833
0.7540	1.33442	0.04795
0.7570	1.33405	0.04758
0.7600	1.33367	0.04723
0.7630	1.33328	0.04689
0.7660	1.33290	0.04658
0.7690	1.33251	0.04628
0.7720	1.33211	0.04599
0.7750	1.33172	0.04572
0.7780	1.33132	0.04547
0.7810	1.33092	0.04523
0.7840	1.33052	0.04501
0.7870	1.33012	0.04480
0.7900	1.32972	0.04461
0.7930	1.32932	0.04442
0.7960	1.32892	0.04425
0.7990	1.32852	0.04410
0.8020	1.32813	0.04395
0.8050	1.32773	0.04382
0.8080	1.32734	0.04370
0.8110	1.32694	0.04359
0.8140	1.32655	0.04349
0.8170	1.32617	0.04341
0.8200	1.32578	0.04333
0.8230	1.32540	0.04326
0.8260	1.32502	0.04320
0.8290	1.32464	0.04316
0.8320	1.32426	0.04312
0.8350	1.32389	0.04309
0.8380	1.32353	0.04307
0.8410	1.32316	0.04305
0.8440	1.32280	0.04305
0.8470	1.32244	0.04305
0.8500	1.32209	0.04306
0.8530	1.32174	0.04308
0.8560	1.32140	0.04310
0.8590	1.32105	0.04314
0.8620	1.32072	0.04317
0.8650	1.32038	0.04322
0.8680	1.32006	0.04327
0.8710	1.31973	0.04333
0.8740	1.31941	0.04339
0.8770	1.31910	0.04346
0.8800	1.31879	0.04353
0.8830	1.31848	0.04361
0.8860	1.31818	0.04369
0.8890	1.31788	0.04378
0.8920	1.31759	0.04387
0.8950	1.31730	0.04397
0.8980	1.31702	0.04407
0.9010	1.31674	0.04418
0.9040	1.31646	0.04429
0.9070	1.31620	0.04440
0.9100	1.31593	0.04451
0.9130	1.31567	0.04463
0.9160	1.31542	0.04475
0.9190	1.31517	0.04488
0.9220	1.31492	0.04501
0.9250	1.31468	0.04513
0.9280	1.31445	0.04527
0.9310	1.31422	0.04540
0.9340	1.31399	0.04554
0.9370	1.31377	0.04567
0.9400	1.31355	0.04581
0.9430	1.31334	0.04595
0.9460	1.31313	0.04610
0.9490	1.31293	0.04624
0.9520	1.31273	0.04638
0.9550	1.31254	0.04653
0.9580	1.31235	0.04667
0.9610	1.31217	0.04682
0.9640	1.31199	0.04697
0.9670	1.31181	0.04711
0.9700	1.31164	0.04726
0.9730	1.31148	0.04741
0.9760	1.31132	0.04755
0.9790	1.31116	0.04770
0.9820	1.31100	0.04785
0.9850	1.31085	0.04799
0.9880	1.31071	0.04814
0.9910	1.31057	0.04828
0.9940	1.31043	0.04842
0.9970	1.31030	0.04857
1.0000	1.31017	0.04871
1.0075	1.30986	0.04905
1.0150	1.30957	0.04939
1.0225	1.30930	0.04972
1.0300	1.30906	0.05003
1.0375	1.30883	0.05033
1.0450	1.30862	0.05062
1.0525	1.30842	0.05089
1.0600	1.30824	0.05114
1.0675	1.30807	0.05137
1.0750	1.30791	0.05159
1.0825	1.30776	0.05178
1.0900	1.30761	0.05196
1.0975	1.30748	0.05212
1.1050	1.30734	0.05225
1.1125	1.30722	0.05237
1.1200	1.30709	0.05246
1.1275	1.30696	0.05254
1.1350	1.30683	0.05259
1.1425	1.30670	0.05262
1.1500	1.30657	0.05264
1.1575	1.30643	0.05263
1.1650	1.30628	0.05260
1.1725	1.30613	0.05256
1.1800	1.30597	0.05249
1.1875	1.30580	0.05241
1.1950	1.30562	0.05231
1.2025	1.30543	0.05220
1.2100	1.30523	0.05206
1.2175	1.30502	0.05192
1.2250	1.30479	0.05175
1.2325	1.30455	0.05158
1.2400	1.30430	0.05139
1.2475	1.30403	0.05119
1.2550	1.30375	0.05097
1.2625	1.30345	0.05075
1.2700	1.30314	0.05051
1.2775	1.30281	0.05027
1.2850	1.30246	0.05002
1.2925	1.30210	0.04975
1.3000	1.30172	0.04948
