Material: inorganic / ZrTe5 / Guo-alpha
Optical constants. Z. Guo, H. Gu, M. Fang, B. Song, W. Wang, X. Chen, C. Zhang, H. Jiang, L. Wang, S. Liu. Complete dielectric tensor and giant optical anisotropy in quasi-one-dimensional ZrTe5, ACS Mater. Lett., 3, 6525–534 (2021) (Numerical data kindly provided by Zhengfeng Guo)
Comments: nα, kα; room temperature.
wavelength (um)	n	k
0.1930	0.89551	1.12315
0.1960	0.89555	1.11599
0.1990	0.89329	1.11355
0.2020	0.88962	1.11583
0.2050	0.88538	1.12269
0.2080	0.88133	1.13387
0.2110	0.87812	1.14901
0.2140	0.87633	1.16770
0.2170	0.87641	1.18948
0.2200	0.87875	1.21387
0.2230	0.88364	1.24035
0.2260	0.89129	1.26842
0.2290	0.90187	1.29757
0.2320	0.91545	1.32731
0.2350	0.93207	1.35713
0.2380	0.95168	1.38653
0.2410	0.97420	1.41504
0.2440	0.99945	1.44216
0.2470	1.02718	1.46745
0.2500	1.05708	1.49050
0.2530	1.08874	1.51093
0.2560	1.12167	1.52848
0.2590	1.15535	1.54294
0.2620	1.18919	1.55425
0.2650	1.22260	1.56249
0.2680	1.25502	1.56786
0.2710	1.28595	1.57070
0.2740	1.31501	1.57146
0.2770	1.34195	1.57067
0.2800	1.36664	1.56889
0.2830	1.38912	1.56667
0.2860	1.40958	1.56454
0.2890	1.42831	1.56291
0.2920	1.44570	1.56212
0.2950	1.46219	1.56238
0.2980	1.47825	1.56376
0.3010	1.49434	1.56622
0.3040	1.51089	1.56961
0.3070	1.52825	1.57366
0.3100	1.54671	1.57803
0.3130	1.56646	1.58232
0.3160	1.58758	1.58610
0.3190	1.61002	1.58891
0.3220	1.63364	1.59033
0.3250	1.65819	1.58998
0.3280	1.68332	1.58753
0.3310	1.70863	1.58278
0.3340	1.73365	1.57559
0.3370	1.75791	1.56598
0.3400	1.78093	1.55404
0.3430	1.80231	1.54000
0.3460	1.82169	1.52415
0.3490	1.83878	1.50686
0.3520	1.85341	1.48854
0.3550	1.86549	1.46962
0.3580	1.87503	1.45052
0.3610	1.88212	1.43164
0.3640	1.88692	1.41334
0.3670	1.88966	1.39592
0.3700	1.89062	1.37965
0.3730	1.89010	1.36469
0.3760	1.88846	1.35117
0.3790	1.88604	1.33913
0.3820	1.88321	1.32852
0.3850	1.88031	1.31920
0.3880	1.87765	1.31093
0.3910	1.87546	1.30340
0.3940	1.87382	1.29618
0.3970	1.87271	1.28885
0.4000	1.87188	1.28101
0.4030	1.87098	1.27237
0.4060	1.86952	1.26283
0.4090	1.86702	1.25251
0.4120	1.86311	1.24169
0.4150	1.85755	1.23077
0.4180	1.85032	1.22021
0.4210	1.84151	1.21037
0.4240	1.83134	1.20158
0.4270	1.82007	1.19400
0.4300	1.80797	1.18775
0.4330	1.79529	1.18283
0.4360	1.78225	1.17922
0.4390	1.76901	1.17685
0.4420	1.75572	1.17563
0.4450	1.74247	1.17547
0.4480	1.72934	1.17628
0.4510	1.71638	1.17797
0.4540	1.70363	1.18047
0.4570	1.69111	1.18370
0.4600	1.67884	1.18759
0.4630	1.66683	1.19210
0.4660	1.65507	1.19716
0.4690	1.64358	1.20274
0.4720	1.63234	1.20879
0.4750	1.62135	1.21528
0.4780	1.61061	1.22218
0.4810	1.60010	1.22947
0.4840	1.58983	1.23712
0.4870	1.57978	1.24511
0.4900	1.56995	1.25343
0.4930	1.56032	1.26205
0.4960	1.55091	1.27096
0.4990	1.54169	1.28016
0.5020	1.53267	1.28962
0.5050	1.52383	1.29935
0.5080	1.51518	1.30933
0.5110	1.50670	1.31955
0.5140	1.49840	1.33001
0.5170	1.49028	1.34071
0.5200	1.48232	1.35164
0.5230	1.47453	1.36279
0.5260	1.46690	1.37416
0.5290	1.45944	1.38574
0.5320	1.45214	1.39754
0.5350	1.44500	1.40956
0.5380	1.43803	1.42177
0.5410	1.43122	1.43420
0.5440	1.42457	1.44683
0.5470	1.41809	1.45966
0.5500	1.41178	1.47268
0.5530	1.40563	1.48591
0.5560	1.39965	1.49933
0.5590	1.39385	1.51294
0.5620	1.38821	1.52674
0.5650	1.38276	1.54073
0.5680	1.37749	1.55491
0.5710	1.37240	1.56927
0.5740	1.36750	1.58381
0.5770	1.36280	1.59853
0.5800	1.35828	1.61342
0.5830	1.35397	1.62849
0.5860	1.34985	1.64372
0.5890	1.34595	1.65912
0.5920	1.34225	1.67468
0.5950	1.33877	1.69040
0.5980	1.33551	1.70626
0.6010	1.33246	1.72228
0.6040	1.32965	1.73845
0.6070	1.32706	1.75475
0.6100	1.32471	1.77119
0.6130	1.32260	1.78775
0.6160	1.32072	1.80445
0.6190	1.31909	1.82126
0.6220	1.31771	1.83819
0.6250	1.31658	1.85522
0.6280	1.31571	1.87236
0.6310	1.31509	1.88960
0.6340	1.31473	1.90693
0.6370	1.31464	1.92434
0.6400	1.31481	1.94184
0.6430	1.31526	1.95941
0.6460	1.31597	1.97704
0.6490	1.31695	1.99474
0.6520	1.31822	2.01249
0.6550	1.31975	2.03029
0.6580	1.32157	2.04813
0.6610	1.32367	2.06601
0.6640	1.32606	2.08391
0.6670	1.32872	2.10184
0.6700	1.33168	2.11978
0.6730	1.33492	2.13774
0.6760	1.33845	2.15569
0.6790	1.34227	2.17364
0.6820	1.34638	2.19158
0.6850	1.35078	2.20950
0.6880	1.35548	2.22740
0.6910	1.36046	2.24527
0.6940	1.36575	2.26309
0.6970	1.37133	2.28087
0.7000	1.37720	2.29860
0.7030	1.38337	2.31627
0.7060	1.38984	2.33387
0.7090	1.39661	2.35139
0.7120	1.40368	2.36883
0.7150	1.41104	2.38618
0.7180	1.41871	2.40343
0.7210	1.42668	2.42058
0.7240	1.43495	2.43761
0.7270	1.44352	2.45451
0.7300	1.45240	2.47128
0.7330	1.46159	2.48790
0.7360	1.47109	2.50436
0.7390	1.48090	2.52065
0.7420	1.49104	2.53674
0.7450	1.50149	2.55258
0.7480	1.51219	2.56815
0.7510	1.52313	2.58347
0.7540	1.53428	2.59855
0.7570	1.54565	2.61340
0.7600	1.55724	2.62801
0.7630	1.56904	2.64238
0.7660	1.58104	2.65652
0.7690	1.59325	2.67041
0.7720	1.60566	2.68406
0.7750	1.61827	2.69746
0.7780	1.63107	2.71060
0.7810	1.64407	2.72349
0.7840	1.65726	2.73611
0.7870	1.67063	2.74845
0.7900	1.68419	2.76052
0.7930	1.69793	2.77231
0.7960	1.71184	2.78380
0.7990	1.72593	2.79500
0.8020	1.74018	2.80588
0.8050	1.75460	2.81645
0.8080	1.76916	2.82670
0.8110	1.78388	2.83661
0.8140	1.79874	2.84618
0.8170	1.81374	2.85541
0.8200	1.82887	2.86427
0.8230	1.84411	2.87276
0.8260	1.85946	2.88087
0.8290	1.87491	2.88860
0.8320	1.89045	2.89593
0.8350	1.90607	2.90285
0.8380	1.92175	2.90936
0.8410	1.93748	2.91544
0.8440	1.95324	2.92109
0.8470	1.96903	2.92630
0.8500	1.98483	2.93106
0.8530	2.00061	2.93537
0.8560	2.01636	2.93921
0.8590	2.03206	2.94258
0.8620	2.04769	2.94548
0.8650	2.06324	2.94791
0.8680	2.07867	2.94985
0.8710	2.09397	2.95130
0.8740	2.10911	2.95228
0.8770	2.12407	2.95277
0.8800	2.13882	2.95277
0.8830	2.15334	2.95230
0.8860	2.16760	2.95136
0.8890	2.18158	2.94995
0.8920	2.19525	2.94808
0.8950	2.20859	2.94576
0.8980	2.22156	2.94301
0.9010	2.23414	2.93984
0.9040	2.24631	2.93627
0.9070	2.25804	2.93231
0.9100	2.26931	2.92798
0.9130	2.28009	2.92331
0.9160	2.29037	2.91833
0.9190	2.30011	2.91305
0.9220	2.30931	2.90751
0.9250	2.31794	2.90174
0.9280	2.32599	2.89577
0.9310	2.33345	2.88962
0.9340	2.34030	2.88335
0.9370	2.34655	2.87697
0.9400	2.35217	2.87054
0.9430	2.35717	2.86407
0.9460	2.36155	2.85762
0.9490	2.36531	2.85122
0.9520	2.36845	2.84490
0.9550	2.37099	2.83870
0.9580	2.37292	2.83266
0.9610	2.37428	2.82682
0.9640	2.37506	2.82120
0.9670	2.37530	2.81585
0.9700	2.37500	2.81079
0.9730	2.37420	2.80605
0.9760	2.37292	2.80166
0.9790	2.37117	2.79765
0.9820	2.36900	2.79403
0.9850	2.36643	2.79084
0.9880	2.36350	2.78809
0.9910	2.36022	2.78579
0.9940	2.35664	2.78396
0.9970	2.35279	2.78261
1.0000	2.34870	2.78175
1.0075	2.33765	2.78179
1.0150	2.32581	2.78495
1.0225	2.31367	2.79120
1.0300	2.30168	2.80040
1.0375	2.29023	2.81237
1.0450	2.27966	2.82688
1.0525	2.27023	2.84366
1.0600	2.26218	2.86243
1.0675	2.25565	2.88290
1.0750	2.25077	2.90479
1.0825	2.24760	2.92782
1.0900	2.24615	2.95173
1.0975	2.24644	2.97628
1.1050	2.24841	3.00126
1.1125	2.25203	3.02646
1.1200	2.25722	3.05172
1.1275	2.26390	3.07688
1.1350	2.27200	3.10182
1.1425	2.28143	3.12642
1.1500	2.29208	3.15058
1.1575	2.30389	3.17423
1.1650	2.31675	3.19729
1.1725	2.33059	3.21970
1.1800	2.34533	3.24143
1.1875	2.36088	3.26243
1.1950	2.37719	3.28267
1.2025	2.39418	3.30211
1.2100	2.41179	3.32073
1.2175	2.43000	3.33850
1.2250	2.44876	3.35535
1.2325	2.46797	3.37110
1.2400	2.48736	3.38580
1.2475	2.50684	3.39954
1.2550	2.52635	3.41240
1.2625	2.54585	3.42442
1.2700	2.56531	3.43564
1.2775	2.58470	3.44609
1.2850	2.60398	3.45581
1.2925	2.62313	3.46483
1.3000	2.64214	3.47317
