Material: inorganic / Kr / Sinnock-solid-67K
Optical constants. A. C. Sinnock and B. L. Smith. Refractive indices of the condensed inert gases, Phys. Rev. 181, 1297-1307 (1969)
Comments: Solid krypton at 67 K (-206.15 Â°C).
Specs: {"temperature": "67 K"}
wavelength (um)	n
0.3631	1.3787
0.4063	1.3749
0.4358	1.3727
0.4753	1.3704
0.5086	1.3688
0.5461	1.3674
0.5780	1.3664
0.6439	1.3648
