Material: inorganic / Kr / Sinnock-liquid-118K
Optical constants. A. C. Sinnock and B. L. Smith. Refractive indices of the condensed inert gases, Phys. Rev. 181, 1297-1307 (1969)
Comments: Liquid krypton at 118 K (-155.15 Â°C).
Specs: {"temperature": "118 K"}
wavelength (um)	n
0.3631	1.3095
0.4063	1.3065
0.4358	1.3049
0.4753	1.3031
0.5086	1.3017
0.5461	1.3008
0.5780	1.2999
0.6439	1.2986
