Material: main / WSe2 / Hsu-3L
Optical constants. C. Hsu, R. Frisenda, R. Schmidt, A. Arora, S. M. de Vasconcellos, R. Bratschitsch, H. S. J. van der Zant, A. Castellanos-Gomez. Thickness-dependent refractive index of 1L, 2L, and 3L MoS2, MoSe2, WS2, and WSe2, Adv. Optical Mater. 7, 1900239 (2019) (Numerical data kindly provided by Andres Castellanos-Gomez)
Comments: 3-layer (3L)
Specs: {"n_absolute": true, "wavelength_vacuum": true, "film_thickness": "3L"}
wavelength (um)	n	k
0.39697	5.1429E+00	2.9821E+00
0.39806	5.1720E+00	3.1699E+00
0.39914	5.2222E+00	3.1884E+00
0.40023	5.2619E+00	3.2017E+00
0.40132	5.2910E+00	3.1937E+00
0.40240	5.3466E+00	3.2228E+00
0.40349	5.3810E+00	3.2360E+00
0.40458	5.4101E+00	3.2175E+00
0.40567	5.4550E+00	3.2466E+00
0.40676	5.4471E+00	3.2122E+00
0.40785	5.4603E+00	3.2096E+00
0.40893	5.4735E+00	3.2017E+00
0.41002	5.4762E+00	3.1990E+00
0.41111	5.4630E+00	3.1805E+00
0.41221	5.4497E+00	3.1673E+00
0.41330	5.4471E+00	3.1805E+00
0.41439	5.4392E+00	3.1831E+00
0.41548	5.4206E+00	3.1752E+00
0.41657	5.4127E+00	3.1726E+00
0.41766	5.3995E+00	3.1752E+00
0.41876	5.3968E+00	3.1726E+00
0.41985	5.3995E+00	3.1911E+00
0.42094	5.3968E+00	3.1831E+00
0.42204	5.3995E+00	3.1805E+00
0.42313	5.4180E+00	3.1884E+00
0.42423	5.4312E+00	3.1911E+00
0.42532	5.4444E+00	3.1990E+00
0.42642	5.4630E+00	3.1911E+00
0.42751	5.4762E+00	3.2043E+00
0.42861	5.4894E+00	3.2069E+00
0.42970	5.4974E+00	3.2096E+00
0.43080	5.5053E+00	3.2175E+00
0.43190	5.5132E+00	3.2149E+00
0.43300	5.5212E+00	3.2175E+00
0.43409	5.5185E+00	3.2149E+00
0.43519	5.5159E+00	3.2069E+00
0.43629	5.5185E+00	3.2043E+00
0.43739	5.5212E+00	3.1964E+00
0.43849	5.5238E+00	3.1778E+00
0.43959	5.5265E+00	3.1646E+00
0.44069	5.5291E+00	3.1408E+00
0.44179	5.5265E+00	3.1117E+00
0.44289	5.5291E+00	3.0932E+00
0.44399	5.5212E+00	3.0535E+00
0.44509	5.5185E+00	3.0244E+00
0.44619	5.5106E+00	2.9900E+00
0.44729	5.5132E+00	2.9662E+00
0.44840	5.5053E+00	2.9265E+00
0.44950	5.4974E+00	2.8921E+00
0.45060	5.5000E+00	2.8736E+00
0.45171	5.4974E+00	2.8445E+00
0.45281	5.4894E+00	2.8154E+00
0.45391	5.4868E+00	2.7916E+00
0.45502	5.4841E+00	2.7678E+00
0.45612	5.4815E+00	2.7493E+00
0.45723	5.4788E+00	2.7202E+00
0.45834	5.4709E+00	2.6964E+00
0.45944	5.4788E+00	2.6831E+00
0.46055	5.4815E+00	2.6699E+00
0.46165	5.4841E+00	2.6461E+00
0.46276	5.4974E+00	2.6329E+00
0.46387	5.5053E+00	2.6144E+00
0.46498	5.5291E+00	2.6011E+00
0.46608	5.5476E+00	2.5826E+00
0.46719	5.5556E+00	2.5588E+00
0.46830	5.5741E+00	2.5403E+00
0.46941	5.5979E+00	2.5271E+00
0.47052	5.6111E+00	2.5032E+00
0.47163	5.6349E+00	2.4847E+00
0.47274	5.6481E+00	2.4503E+00
0.47385	5.6667E+00	2.4265E+00
0.47496	5.6852E+00	2.4027E+00
0.47607	5.6931E+00	2.3630E+00
0.47719	5.6958E+00	2.3339E+00
0.47830	5.7037E+00	2.3101E+00
0.47941	5.7063E+00	2.2810E+00
0.48052	5.6984E+00	2.2519E+00
0.48163	5.6958E+00	2.2281E+00
0.48275	5.6984E+00	2.2149E+00
0.48386	5.6958E+00	2.2017E+00
0.48498	5.6931E+00	2.1831E+00
0.48609	5.6799E+00	2.1699E+00
0.48720	5.6772E+00	2.1673E+00
0.48832	5.6693E+00	2.1593E+00
0.48944	5.6614E+00	2.1514E+00
0.49055	5.6534E+00	2.1435E+00
0.49167	5.6349E+00	2.1302E+00
0.49278	5.6217E+00	2.1276E+00
0.49390	5.6085E+00	2.1302E+00
0.49502	5.6005E+00	2.1329E+00
0.49613	5.5873E+00	2.1302E+00
0.49725	5.5741E+00	2.1276E+00
0.49837	5.5661E+00	2.1355E+00
0.49949	5.5582E+00	2.1435E+00
0.50061	5.5397E+00	2.1408E+00
0.50173	5.5317E+00	2.1487E+00
0.50284	5.5185E+00	2.1514E+00
0.50396	5.5106E+00	2.1593E+00
0.50509	5.5079E+00	2.1726E+00
0.50621	5.5053E+00	2.1911E+00
0.50733	5.5026E+00	2.1990E+00
0.50845	5.5000E+00	2.2122E+00
0.50957	5.4974E+00	2.2255E+00
0.51069	5.4947E+00	2.2387E+00
0.51181	5.4868E+00	2.2466E+00
0.51294	5.4841E+00	2.2599E+00
0.51406	5.4815E+00	2.2731E+00
0.51518	5.4735E+00	2.2810E+00
0.51631	5.4762E+00	2.3048E+00
0.51743	5.4735E+00	2.3233E+00
0.51855	5.4656E+00	2.3366E+00
0.51968	5.4577E+00	2.3498E+00
0.52080	5.4550E+00	2.3683E+00
0.52193	5.4524E+00	2.3868E+00
0.52305	5.4444E+00	2.4001E+00
0.52418	5.4365E+00	2.4186E+00
0.52530	5.4286E+00	2.4265E+00
0.52643	5.4206E+00	2.4345E+00
0.52756	5.4127E+00	2.4477E+00
0.52869	5.4048E+00	2.4662E+00
0.52981	5.3968E+00	2.4741E+00
0.53094	5.3836E+00	2.4768E+00
0.53207	5.3757E+00	2.4847E+00
0.53320	5.3624E+00	2.4927E+00
0.53432	5.3545E+00	2.4953E+00
0.53545	5.3466E+00	2.5032E+00
0.53658	5.3333E+00	2.4900E+00
0.53771	5.3201E+00	2.4821E+00
0.53884	5.3122E+00	2.4741E+00
0.53997	5.2989E+00	2.4556E+00
0.54110	5.2857E+00	2.4318E+00
0.54224	5.2778E+00	2.4133E+00
0.54337	5.2646E+00	2.3842E+00
0.54450	5.2513E+00	2.3498E+00
0.54563	5.2381E+00	2.3101E+00
0.54676	5.2196E+00	2.2546E+00
0.54789	5.2169E+00	2.2149E+00
0.54903	5.2090E+00	2.1699E+00
0.55016	5.1958E+00	2.1196E+00
0.55129	5.1931E+00	2.0747E+00
0.55243	5.1852E+00	2.0191E+00
0.55356	5.1878E+00	1.9847E+00
0.55470	5.1852E+00	1.9398E+00
0.55583	5.1984E+00	1.9159E+00
0.55697	5.2063E+00	1.8763E+00
0.55810	5.2196E+00	1.8472E+00
0.55924	5.2328E+00	1.8128E+00
0.56037	5.2460E+00	1.7784E+00
0.56151	5.2698E+00	1.7546E+00
0.56265	5.2937E+00	1.7413E+00
0.56378	5.3175E+00	1.7175E+00
0.56492	5.3307E+00	1.6831E+00
0.56606	5.3598E+00	1.6699E+00
0.56720	5.3836E+00	1.6461E+00
0.56834	5.3968E+00	1.6117E+00
0.56947	5.4259E+00	1.6038E+00
0.57061	5.4444E+00	1.5747E+00
0.57175	5.4683E+00	1.5562E+00
0.57289	5.4921E+00	1.5429E+00
0.57403	5.5106E+00	1.5191E+00
0.57517	5.5291E+00	1.5006E+00
0.57631	5.5476E+00	1.4768E+00
0.57745	5.5661E+00	1.4583E+00
0.57860	5.5847E+00	1.4345E+00
0.57974	5.6032E+00	1.4159E+00
0.58088	5.6111E+00	1.3815E+00
0.58202	5.6243E+00	1.3577E+00
0.58316	5.6217E+00	1.3128E+00
0.58430	5.6085E+00	1.2678E+00
0.58545	5.5794E+00	1.2017E+00
0.58659	5.5450E+00	1.1355E+00
0.58774	5.5106E+00	1.0747E+00
0.58888	5.4709E+00	1.0138E+00
0.59002	5.4418E+00	9.6356E-01
0.59117	5.4127E+00	9.1859E-01
0.59231	5.3889E+00	8.7890E-01
0.59346	5.3651E+00	8.3922E-01
0.59460	5.3307E+00	7.9954E-01
0.59575	5.3016E+00	7.5986E-01
0.59689	5.2937E+00	7.3605E-01
0.59804	5.2540E+00	6.9636E-01
0.59919	5.2460E+00	6.7256E-01
0.60034	5.2222E+00	6.4875E-01
0.60148	5.2037E+00	6.2494E-01
0.60263	5.1905E+00	6.0113E-01
0.60378	5.1720E+00	5.8261E-01
0.60493	5.1534E+00	5.6409E-01
0.60608	5.1349E+00	5.4557E-01
0.60722	5.1111E+00	5.2705E-01
0.60837	5.0979E+00	5.1382E-01
0.60952	5.0794E+00	5.0523E-01
0.61067	5.0608E+00	4.8957E-01
0.61182	5.0476E+00	4.8407E-01
0.61297	5.0344E+00	4.7389E-01
0.61412	5.0159E+00	4.6398E-01
0.61527	4.9974E+00	4.5454E-01
0.61642	4.9841E+00	4.5452E-01
0.61758	4.9656E+00	4.5349E-01
0.61873	4.9524E+00	4.4427E-01
0.61988	4.9392E+00	4.3853E-01
0.62103	4.9259E+00	4.4192E-01
0.62218	4.9180E+00	4.3853E-01
0.62334	4.9101E+00	4.4190E-01
0.62449	4.8968E+00	4.3795E-01
0.62565	4.8836E+00	4.3853E-01
0.62680	4.8810E+00	4.4192E-01
0.62795	4.8730E+00	4.3853E-01
0.62911	4.8651E+00	4.4192E-01
0.63026	4.8571E+00	4.3853E-01
0.63142	4.8545E+00	4.4207E-01
0.63257	4.8519E+00	4.4542E-01
0.63373	4.8439E+00	4.5455E-01
0.63488	4.8466E+00	4.5455E-01
0.63604	4.8386E+00	4.5455E-01
0.63720	4.8360E+00	4.5456E-01
0.63835	4.8280E+00	4.5505E-01
0.63951	4.8307E+00	4.6458E-01
0.64067	4.8280E+00	4.6742E-01
0.64183	4.8254E+00	4.7092E-01
0.64298	4.8280E+00	4.6902E-01
0.64414	4.8307E+00	4.7474E-01
0.64530	4.8386E+00	4.8438E-01
0.64646	4.8360E+00	4.8438E-01
0.64762	4.8439E+00	4.8438E-01
0.64878	4.8466E+00	4.8438E-01
0.64994	4.8545E+00	4.8441E-01
0.65110	4.8519E+00	4.8563E-01
0.65226	4.8545E+00	4.9261E-01
0.65342	4.8624E+00	4.9664E-01
0.65458	4.8704E+00	5.0523E-01
0.65574	4.8677E+00	5.0226E-01
0.65690	4.8704E+00	5.0343E-01
0.65806	4.8783E+00	5.1100E-01
0.65923	4.8810E+00	5.0835E-01
0.66039	4.8836E+00	5.1100E-01
0.66155	4.8862E+00	5.0835E-01
0.66272	4.8889E+00	5.1100E-01
0.66388	4.8915E+00	5.0835E-01
0.66504	4.8836E+00	5.1629E-01
0.66620	4.8915E+00	5.1893E-01
0.66737	4.8942E+00	5.1629E-01
0.66853	4.8915E+00	5.1893E-01
0.66970	4.8995E+00	5.2687E-01
0.67086	4.9021E+00	5.2422E-01
0.67203	4.8995E+00	5.2687E-01
0.67319	4.9021E+00	5.2422E-01
0.67436	4.8995E+00	5.2687E-01
0.67552	4.9021E+00	5.3481E-01
0.67669	4.8995E+00	5.3216E-01
0.67785	4.9021E+00	5.3481E-01
0.67902	4.8995E+00	5.3216E-01
0.68019	4.9021E+00	5.3481E-01
0.68136	4.8942E+00	5.3216E-01
0.68253	4.8862E+00	5.3481E-01
0.68369	4.8836E+00	5.3745E-01
0.68486	4.8862E+00	5.3481E-01
0.68603	4.8836E+00	5.4274E-01
0.68720	4.8862E+00	5.4010E-01
0.68837	4.8836E+00	5.4274E-01
0.68954	4.8757E+00	5.4010E-01
0.69071	4.8783E+00	5.3745E-01
0.69188	4.8757E+00	5.3481E-01
0.69305	4.8783E+00	5.3216E-01
0.69422	4.8704E+00	5.3481E-01
0.69539	4.8677E+00	5.4274E-01
0.69656	4.8598E+00	5.4010E-01
0.69773	4.8519E+00	5.4274E-01
0.69890	4.8439E+00	5.4010E-01
0.70007	4.8413E+00	5.4274E-01
0.70124	4.8333E+00	5.4010E-01
0.70242	4.8307E+00	5.3216E-01
0.70359	4.8228E+00	5.3481E-01
0.70476	4.8148E+00	5.2687E-01
0.70593	4.8069E+00	5.2422E-01
0.70711	4.7989E+00	5.2687E-01
0.70828	4.7857E+00	5.2422E-01
0.70946	4.7725E+00	5.2687E-01
0.71063	4.7646E+00	5.2422E-01
0.71181	4.7513E+00	5.2687E-01
0.71298	4.7381E+00	5.2422E-01
0.71415	4.7249E+00	5.2687E-01
0.71533	4.7063E+00	5.2422E-01
0.71651	4.6931E+00	5.3216E-01
0.71768	4.6746E+00	5.3481E-01
0.71886	4.6561E+00	5.4274E-01
0.72003	4.6429E+00	5.5068E-01
0.72121	4.6243E+00	5.5862E-01
0.72239	4.6058E+00	5.6655E-01
0.72356	4.5873E+00	5.7978E-01
0.72474	4.5688E+00	5.9301E-01
0.72592	4.5556E+00	6.0623E-01
0.72710	4.5317E+00	6.1946E-01
0.72827	4.5132E+00	6.3798E-01
0.72945	4.4947E+00	6.5650E-01
0.73063	4.4762E+00	6.8031E-01
0.73181	4.4524E+00	7.0412E-01
0.73299	4.4286E+00	7.2793E-01
0.73417	4.4153E+00	7.6761E-01
0.73535	4.3915E+00	7.9142E-01
0.73653	4.3624E+00	8.3110E-01
0.73771	4.3492E+00	8.7608E-01
0.73889	4.3307E+00	9.2634E-01
0.74007	4.3175E+00	9.8190E-01
0.74125	4.3042E+00	1.0375E+00
0.74243	4.3016E+00	1.0930E+00
0.74361	4.3095E+00	1.1539E+00
0.74479	4.3175E+00	1.2041E+00
0.74598	4.3413E+00	1.2597E+00
0.74716	4.3651E+00	1.2994E+00
0.74834	4.4101E+00	1.3285E+00
0.74953	4.4550E+00	1.3523E+00
0.75071	4.5000E+00	1.3390E+00
0.75189	4.5503E+00	1.3258E+00
0.75308	4.6058E+00	1.2914E+00
0.75426	4.6772E+00	1.2359E+00
0.75544	4.7381E+00	1.1750E+00
0.75663	4.7989E+00	1.0983E+00
0.75781	4.8810E+00	1.0269E+00
0.75899	4.9471E+00	9.4486E-01
0.76018	5.0132E+00	8.6285E-01
0.76137	5.0688E+00	7.8084E-01
0.76255	5.1349E+00	7.0941E-01
0.76374	5.1905E+00	6.3798E-01
0.76492	5.2460E+00	5.6655E-01
0.76611	5.2857E+00	5.0498E-01
0.76730	5.3254E+00	4.3981E-01
0.76848	5.3651E+00	3.9816E-01
0.76967	5.3942E+00	3.5351E-01
0.77086	5.4180E+00	3.1027E-01
0.77205	5.4259E+00	2.7114E-01
0.77323	5.4339E+00	2.3557E-01
0.77442	5.4312E+00	2.0312E-01
0.77561	5.4233E+00	1.7785E-01
0.77680	5.4259E+00	1.5020E-01
0.77799	5.4074E+00	1.2890E-01
0.77918	5.3942E+00	1.0118E-01
0.78037	5.3810E+00	8.6408E-02
0.78156	5.3624E+00	7.2227E-02
0.78274	5.3492E+00	5.2296E-02
0.78394	5.3254E+00	3.3897E-02
0.78512	5.3175E+00	2.4857E-02
0.78632	5.3042E+00	1.3526E-02
0.78751	5.2804E+00	5.3330E-03
0.78870	5.2725E+00	0.0000E+00
0.78989	5.2593E+00	0.0000E+00
0.79108	5.2513E+00	0.0000E+00
0.79227	5.2381E+00	0.0000E+00
0.79346	5.2196E+00	0.0000E+00
0.79466	5.2063E+00	0.0000E+00
0.79585	5.1825E+00	0.0000E+00
0.79704	5.1587E+00	0.0000E+00
0.79823	5.1402E+00	0.0000E+00
0.79943	5.1323E+00	0.0000E+00
0.80062	5.1243E+00	0.0000E+00
0.80182	5.1111E+00	0.0000E+00
0.80301	5.1032E+00	0.0000E+00
0.80420	5.1005E+00	0.0000E+00
0.80540	5.1032E+00	0.0000E+00
0.80659	5.0847E+00	0.0000E+00
0.80779	5.0767E+00	0.0000E+00
0.80898	5.0529E+00	0.0000E+00
0.81018	5.0556E+00	0.0000E+00
0.81137	5.0476E+00	0.0000E+00
0.81257	5.0132E+00	2.6882E-03
0.81377	5.0106E+00	1.6393E-02
0.81496	4.9868E+00	1.9363E-02
0.81615	4.9735E+00	3.1097E-02
0.81735	4.9709E+00	3.7153E-02
0.81855	4.9524E+00	3.3897E-02
0.81975	4.9550E+00	2.8319E-02
0.82095	4.9365E+00	3.6724E-02
0.82214	4.9127E+00	3.9742E-02
0.82334	4.8836E+00	4.0230E-02
0.82454	4.8598E+00	4.3385E-02
0.82574	4.8571E+00	8.7604E-02
0.82694	4.8280E+00	1.0627E-01
0.82814	4.8360E+00	1.0830E-01
0.82933	4.8122E+00	1.3864E-01
0.83053	4.8201E+00	1.3484E-01
0.83173	4.8333E+00	1.2661E-01
0.83293	4.7937E+00	1.0966E-01
0.83413	4.8175E+00	1.2130E-01
0.83533	4.8095E+00	1.2448E-01
0.83653	4.8175E+00	1.2293E-01
0.83773	4.8201E+00	1.5054E-01
0.83893	4.8016E+00	1.7227E-01
0.84014	4.8042E+00	1.6773E-01
0.84133	4.8016E+00	1.4864E-01
0.84254	4.7778E+00	1.4198E-01
0.84374	4.7751E+00	1.3111E-01
0.84494	4.7831E+00	1.1489E-01
0.84614	4.8016E+00	1.3017E-01
0.84735	4.7831E+00	1.4412E-01
0.84855	4.7222E+00	2.2577E-01
0.84975	4.6984E+00	2.7005E-01
