Material: main / WSe2 / Hsu-1L
Optical constants. C. Hsu, R. Frisenda, R. Schmidt, A. Arora, S. M. de Vasconcellos, R. Bratschitsch, H. S. J. van der Zant, A. Castellanos-Gomez. Thickness-dependent refractive index of 1L, 2L, and 3L MoS2, MoSe2, WS2, and WSe2, Adv. Optical Mater. 7, 1900239 (2019) (Numerical data kindly provided by Andres Castellanos-Gomez)
Comments: Monolayer (1-layer, 1L)
Specs: {"n_absolute": true, "wavelength_vacuum": true, "film_thickness": "1L"}
wavelength (um)	n	k
0.39697	2.8413E+00	1.7222E+00
0.39806	2.8492E+00	1.5344E+00
0.39914	2.9577E+00	1.5582E+00
0.40023	2.9497E+00	1.6084E+00
0.40132	2.9683E+00	1.6481E+00
0.40240	2.9656E+00	1.7090E+00
0.40349	2.9471E+00	1.7592E+00
0.40458	2.9286E+00	1.8095E+00
0.40567	2.9153E+00	1.8439E+00
0.40676	2.9074E+00	1.8624E+00
0.40785	2.8836E+00	1.8915E+00
0.40894	2.8862E+00	1.8994E+00
0.41002	2.8677E+00	1.9074E+00
0.41111	2.8704E+00	1.9100E+00
0.41221	2.8889E+00	1.9127E+00
0.41330	2.8968E+00	1.9206E+00
0.41439	2.9312E+00	1.9021E+00
0.41548	2.9709E+00	1.9047E+00
0.41657	2.9841E+00	1.9021E+00
0.41766	3.0079E+00	1.9100E+00
0.41876	3.0476E+00	1.9285E+00
0.41985	3.1032E+00	1.9312E+00
0.42094	3.1587E+00	1.9232E+00
0.42204	3.2037E+00	1.9153E+00
0.42313	3.2646E+00	1.9021E+00
0.42423	3.3360E+00	1.8730E+00
0.42532	3.3968E+00	1.8439E+00
0.42642	3.4365E+00	1.8148E+00
0.42751	3.4921E+00	1.7910E+00
0.42861	3.5423E+00	1.7619E+00
0.42970	3.5979E+00	1.7222E+00
0.43080	3.6270E+00	1.6984E+00
0.43190	3.6667E+00	1.6746E+00
0.43300	3.7222E+00	1.6508E+00
0.43409	3.7460E+00	1.6322E+00
0.43519	3.7910E+00	1.6137E+00
0.43629	3.8307E+00	1.6058E+00
0.43739	3.8704E+00	1.5926E+00
0.43849	3.9206E+00	1.5740E+00
0.43959	3.9444E+00	1.5608E+00
0.44069	3.9841E+00	1.5476E+00
0.44179	4.0079E+00	1.5344E+00
0.44289	4.0317E+00	1.5211E+00
0.44399	4.0714E+00	1.5132E+00
0.44509	4.1058E+00	1.5053E+00
0.44619	4.1349E+00	1.4973E+00
0.44729	4.1746E+00	1.4894E+00
0.44840	4.2143E+00	1.4867E+00
0.44950	4.2540E+00	1.4894E+00
0.45060	4.2831E+00	1.4814E+00
0.45171	4.3175E+00	1.4788E+00
0.45281	4.3571E+00	1.4814E+00
0.45391	4.3915E+00	1.4788E+00
0.45502	4.4206E+00	1.4709E+00
0.45612	4.4603E+00	1.4735E+00
0.45723	4.4841E+00	1.4709E+00
0.45834	4.5079E+00	1.4629E+00
0.45944	4.5317E+00	1.4656E+00
0.46055	4.5556E+00	1.4523E+00
0.46165	4.5847E+00	1.4497E+00
0.46276	4.5979E+00	1.4471E+00
0.46387	4.6111E+00	1.4391E+00
0.46498	4.6243E+00	1.4418E+00
0.46608	4.6376E+00	1.4391E+00
0.46719	4.6561E+00	1.4418E+00
0.46830	4.6640E+00	1.4497E+00
0.46941	4.6614E+00	1.4471E+00
0.47052	4.6693E+00	1.4497E+00
0.47163	4.6720E+00	1.4523E+00
0.47274	4.6693E+00	1.4550E+00
0.47385	4.6667E+00	1.4629E+00
0.47496	4.6640E+00	1.4656E+00
0.47607	4.6561E+00	1.4735E+00
0.47718	4.6481E+00	1.4814E+00
0.47830	4.6455E+00	1.4947E+00
0.47941	4.6429E+00	1.5079E+00
0.48052	4.6349E+00	1.5211E+00
0.48163	4.6323E+00	1.5396E+00
0.48275	4.6243E+00	1.5529E+00
0.48386	4.6217E+00	1.5714E+00
0.48498	4.6085E+00	1.5952E+00
0.48609	4.6005E+00	1.6190E+00
0.48720	4.5979E+00	1.6428E+00
0.48832	4.5952E+00	1.6666E+00
0.48943	4.5926E+00	1.6904E+00
0.49055	4.5899E+00	1.7090E+00
0.49167	4.5926E+00	1.7275E+00
0.49278	4.6005E+00	1.7513E+00
0.49390	4.5979E+00	1.7751E+00
0.49502	4.5952E+00	1.7936E+00
0.49613	4.5979E+00	1.8174E+00
0.49725	4.6005E+00	1.8412E+00
0.49837	4.5979E+00	1.8598E+00
0.49949	4.5847E+00	1.8730E+00
0.50061	4.5820E+00	1.8862E+00
0.50173	4.5741E+00	1.8994E+00
0.50285	4.5608E+00	1.9074E+00
0.50397	4.5423E+00	1.9153E+00
0.50509	4.5344E+00	1.9285E+00
0.50621	4.5053E+00	1.9418E+00
0.50733	4.4762E+00	1.9497E+00
0.50845	4.4524E+00	1.9576E+00
0.50957	4.3968E+00	1.9603E+00
0.51069	4.3571E+00	1.9629E+00
0.51181	4.3069E+00	1.9709E+00
0.51294	4.2460E+00	1.9788E+00
0.51406	4.1746E+00	1.9920E+00
0.51518	4.0979E+00	2.0158E+00
0.51630	4.0370E+00	2.0396E+00
0.51743	3.9603E+00	2.0635E+00
0.51855	3.8836E+00	2.0978E+00
0.51968	3.8228E+00	2.1269E+00
0.52080	3.7566E+00	2.1666E+00
0.52193	3.7169E+00	2.1904E+00
0.52305	3.6720E+00	2.2248E+00
0.52418	3.6270E+00	2.2539E+00
0.52530	3.6085E+00	2.2725E+00
0.52643	3.5899E+00	2.2910E+00
0.52756	3.5979E+00	2.2989E+00
0.52868	3.5952E+00	2.3174E+00
0.52981	3.6190E+00	2.3201E+00
0.53094	3.6429E+00	2.3227E+00
0.53207	3.6772E+00	2.3201E+00
0.53320	3.7169E+00	2.3121E+00
0.53432	3.7672E+00	2.2989E+00
0.53545	3.8175E+00	2.2804E+00
0.53658	3.8836E+00	2.2566E+00
0.53771	3.9339E+00	2.2381E+00
0.53884	4.0000E+00	2.2090E+00
0.53997	4.0767E+00	2.1746E+00
0.54110	4.1376E+00	2.1508E+00
0.54224	4.2143E+00	2.1217E+00
0.54337	4.2963E+00	2.0873E+00
0.54450	4.3783E+00	2.0476E+00
0.54563	4.4392E+00	2.0238E+00
0.54676	4.5265E+00	1.9841E+00
0.54789	4.5979E+00	1.9444E+00
0.54903	4.6799E+00	1.9047E+00
0.55016	4.7513E+00	1.8650E+00
0.55129	4.8280E+00	1.8254E+00
0.55243	4.9101E+00	1.7857E+00
0.55356	4.9762E+00	1.7460E+00
0.55470	5.0529E+00	1.7063E+00
0.55583	5.1190E+00	1.6666E+00
0.55697	5.1693E+00	1.6428E+00
0.55810	5.2302E+00	1.6031E+00
0.55924	5.2857E+00	1.5635E+00
0.56037	5.3413E+00	1.5238E+00
0.56151	5.3810E+00	1.5000E+00
0.56265	5.4206E+00	1.4603E+00
0.56378	5.4550E+00	1.4259E+00
0.56492	5.4788E+00	1.3968E+00
0.56606	5.5026E+00	1.3624E+00
0.56720	5.5159E+00	1.3333E+00
0.56834	5.5238E+00	1.3095E+00
0.56947	5.5317E+00	1.2857E+00
0.57061	5.5397E+00	1.2619E+00
0.57175	5.5476E+00	1.2381E+00
0.57289	5.5503E+00	1.2143E+00
0.57403	5.5529E+00	1.1957E+00
0.57517	5.5450E+00	1.1825E+00
0.57631	5.5370E+00	1.1693E+00
0.57745	5.5397E+00	1.1508E+00
0.57860	5.5265E+00	1.1428E+00
0.57974	5.5185E+00	1.1296E+00
0.58088	5.5106E+00	1.1217E+00
0.58202	5.5026E+00	1.1137E+00
0.58316	5.4947E+00	1.1058E+00
0.58431	5.4868E+00	1.0978E+00
0.58545	5.4788E+00	1.0952E+00
0.58659	5.4709E+00	1.0926E+00
0.58774	5.4630E+00	1.0846E+00
0.58888	5.4550E+00	1.0767E+00
0.59002	5.4577E+00	1.0740E+00
0.59117	5.4656E+00	1.0661E+00
0.59231	5.4577E+00	1.0582E+00
0.59346	5.4656E+00	1.0502E+00
0.59460	5.4841E+00	1.0317E+00
0.59575	5.4815E+00	1.0185E+00
0.59690	5.4894E+00	1.0105E+00
0.59804	5.4921E+00	9.9203E-01
0.59919	5.4947E+00	9.7351E-01
0.60034	5.4974E+00	9.5499E-01
0.60148	5.5053E+00	9.3647E-01
0.60263	5.5026E+00	9.1795E-01
0.60378	5.5106E+00	8.9414E-01
0.60493	5.5132E+00	8.7563E-01
0.60607	5.5106E+00	8.5182E-01
0.60722	5.5132E+00	8.2801E-01
0.60837	5.5106E+00	8.0949E-01
0.60952	5.5132E+00	7.8568E-01
0.61067	5.5106E+00	7.6187E-01
0.61182	5.5079E+00	7.3806E-01
0.61297	5.5000E+00	7.1954E-01
0.61412	5.4921E+00	6.9573E-01
0.61527	5.4894E+00	6.7721E-01
0.61642	5.4709E+00	6.5869E-01
0.61758	5.4630E+00	6.4018E-01
0.61873	5.4497E+00	6.2166E-01
0.61988	5.4418E+00	6.0314E-01
0.62103	5.4286E+00	5.8991E-01
0.62219	5.4048E+00	5.8198E-01
0.62334	5.3862E+00	5.7404E-01
0.62449	5.3677E+00	5.6081E-01
0.62565	5.3492E+00	5.5287E-01
0.62680	5.3254E+00	5.4494E-01
0.62795	5.3016E+00	5.3700E-01
0.62911	5.2884E+00	5.2907E-01
0.63026	5.2646E+00	5.1584E-01
0.63142	5.2513E+00	5.0789E-01
0.63257	5.2328E+00	5.0507E-01
0.63373	5.2037E+00	5.0127E-01
0.63488	5.1905E+00	4.9866E-01
0.63604	5.1720E+00	4.8436E-01
0.63720	5.1534E+00	4.8383E-01
0.63835	5.1349E+00	4.7591E-01
0.63951	5.1111E+00	4.7048E-01
0.64067	5.1032E+00	4.6315E-01
0.64183	5.0899E+00	4.5455E-01
0.64298	5.0714E+00	4.5455E-01
0.64414	5.0582E+00	4.5455E-01
0.64530	5.0450E+00	4.5455E-01
0.64646	5.0265E+00	4.5456E-01
0.64762	5.0132E+00	4.5499E-01
0.64878	4.9894E+00	4.6200E-01
0.64994	4.9762E+00	4.5457E-01
0.65110	4.9630E+00	4.5547E-01
0.65226	4.9392E+00	4.5960E-01
0.65342	4.9312E+00	4.5455E-01
0.65458	4.9233E+00	4.5457E-01
0.65574	4.9153E+00	4.5550E-01
0.65690	4.9021E+00	4.6078E-01
0.65806	4.8836E+00	4.6949E-01
0.65923	4.8757E+00	4.7092E-01
0.66039	4.8624E+00	4.6883E-01
0.66155	4.8492E+00	4.6775E-01
0.66271	4.8360E+00	4.7256E-01
0.66388	4.8175E+00	4.7026E-01
0.66504	4.8042E+00	4.5443E-01
0.66620	4.7963E+00	4.4985E-01
0.66737	4.7884E+00	4.3960E-01
0.66853	4.7910E+00	4.2637E-01
0.66970	4.7778E+00	4.2164E-01
0.67086	4.7751E+00	4.0688E-01
0.67203	4.7672E+00	4.0000E-01
0.67319	4.7540E+00	3.9983E-01
0.67436	4.7354E+00	3.9020E-01
0.67552	4.7222E+00	3.7963E-01
0.67669	4.7090E+00	3.7487E-01
0.67786	4.6958E+00	3.6582E-01
0.67902	4.6825E+00	3.5584E-01
0.68019	4.6693E+00	3.4988E-01
0.68136	4.6614E+00	3.4018E-01
0.68253	4.6323E+00	3.2894E-01
0.68369	4.6085E+00	3.2844E-01
0.68486	4.5952E+00	3.1649E-01
0.68603	4.5820E+00	3.1197E-01
0.68720	4.5582E+00	3.0767E-01
0.68837	4.5397E+00	3.0481E-01
0.68954	4.5212E+00	2.9587E-01
0.69071	4.4921E+00	2.9807E-01
0.69188	4.4683E+00	2.9587E-01
0.69305	4.4339E+00	2.9900E-01
0.69422	4.4048E+00	3.0343E-01
0.69539	4.3651E+00	3.0888E-01
0.69656	4.3254E+00	3.2460E-01
0.69773	4.2857E+00	3.3241E-01
0.69890	4.2460E+00	3.5146E-01
0.70007	4.2063E+00	3.6070E-01
0.70124	4.1667E+00	3.7579E-01
0.70242	4.1270E+00	3.9331E-01
0.70359	4.0873E+00	4.1081E-01
0.70476	4.0476E+00	4.2801E-01
0.70593	3.9974E+00	4.5497E-01
0.70711	3.9630E+00	4.7184E-01
0.70828	3.9286E+00	4.9607E-01
0.70946	3.8836E+00	5.3495E-01
0.71063	3.8492E+00	5.5876E-01
0.71180	3.7989E+00	5.9844E-01
0.71298	3.7487E+00	6.4341E-01
0.71415	3.6825E+00	6.9368E-01
0.71533	3.6270E+00	7.4923E-01
0.71650	3.5873E+00	8.0479E-01
0.71768	3.5370E+00	8.7093E-01
0.71886	3.4815E+00	9.4765E-01
0.72003	3.4471E+00	1.0297E+00
0.72121	3.4074E+00	1.1222E+00
0.72239	3.3677E+00	1.2307E+00
0.72356	3.3228E+00	1.3551E+00
0.72474	3.2989E+00	1.4794E+00
0.72592	3.2751E+00	1.6143E+00
0.72710	3.2672E+00	1.7598E+00
0.72827	3.2593E+00	1.9106E+00
0.72945	3.2831E+00	2.0614E+00
0.73063	3.3175E+00	2.2228E+00
0.73181	3.3571E+00	2.3789E+00
0.73299	3.4180E+00	2.5244E+00
0.73417	3.4894E+00	2.6487E+00
0.73535	3.5820E+00	2.7307E+00
0.73653	3.6746E+00	2.7757E+00
0.73771	3.7778E+00	2.7519E+00
0.73889	3.9127E+00	2.6540E+00
0.74007	4.0317E+00	2.5297E+00
0.74125	4.1772E+00	2.3524E+00
0.74243	4.3280E+00	2.1434E+00
0.74361	4.4788E+00	1.9291E+00
0.74480	4.6190E+00	1.7254E+00
0.74598	4.7381E+00	1.5270E+00
0.74716	4.8307E+00	1.3551E+00
0.74834	4.8915E+00	1.2096E+00
0.74952	4.9312E+00	1.0746E+00
0.75071	4.9497E+00	9.5558E-01
0.75189	4.9418E+00	8.6828E-01
0.75307	4.9074E+00	7.9685E-01
0.75426	4.8519E+00	7.4130E-01
0.75544	4.8069E+00	6.7516E-01
0.75663	4.7354E+00	6.3019E-01
0.75781	4.6799E+00	5.9579E-01
0.75900	4.6085E+00	5.6140E-01
0.76018	4.5635E+00	5.1114E-01
0.76137	4.5132E+00	4.7115E-01
0.76255	4.4630E+00	4.4863E-01
0.76374	4.4180E+00	4.1942E-01
0.76492	4.3730E+00	3.8613E-01
0.76611	4.3228E+00	3.6214E-01
0.76730	4.2831E+00	3.3928E-01
0.76848	4.2646E+00	3.1443E-01
0.76967	4.2302E+00	3.0375E-01
0.77086	4.2222E+00	2.8385E-01
0.77205	4.2090E+00	2.5366E-01
0.77323	4.1905E+00	2.3248E-01
0.77442	4.1720E+00	2.1965E-01
0.77561	4.1587E+00	2.1014E-01
0.77680	4.1508E+00	1.8528E-01
0.77799	4.0952E+00	2.0000E-01
0.77918	4.0714E+00	1.9958E-01
0.78037	4.0635E+00	1.9806E-01
0.78156	4.0556E+00	1.9629E-01
0.78274	4.0370E+00	1.9454E-01
0.78393	4.0238E+00	1.9852E-01
0.78513	4.0370E+00	1.9529E-01
0.78632	4.0132E+00	2.1445E-01
0.78751	3.9894E+00	2.3524E-01
0.78870	3.9497E+00	2.5544E-01
0.78989	3.9365E+00	2.7280E-01
0.79108	3.8968E+00	2.8846E-01
0.79227	3.8624E+00	2.9438E-01
0.79346	3.8439E+00	2.9469E-01
0.79466	3.8201E+00	3.2629E-01
0.79585	3.8122E+00	3.3253E-01
0.79704	3.7937E+00	3.3840E-01
0.79823	3.7963E+00	3.4529E-01
0.79943	3.7778E+00	3.6609E-01
0.80062	3.7751E+00	3.8085E-01
0.80181	3.7460E+00	3.9531E-01
0.80301	3.7434E+00	3.9595E-01
0.80420	3.7037E+00	4.2701E-01
0.80540	3.6693E+00	4.8882E-01
0.80659	3.6402E+00	5.1323E-01
0.80779	3.6217E+00	5.4762E-01
0.80898	3.6243E+00	5.5026E-01
0.81018	3.6058E+00	5.7937E-01
0.81137	3.6085E+00	6.2434E-01
0.81257	3.5794E+00	6.5344E-01
0.81376	3.5185E+00	7.1429E-01
0.81496	3.5000E+00	7.5926E-01
0.81616	3.4497E+00	7.9365E-01
0.81735	3.3942E+00	8.8095E-01
0.81855	3.3439E+00	9.1534E-01
0.81975	3.3360E+00	9.2328E-01
0.82094	3.3016E+00	9.7884E-01
0.82214	3.2672E+00	1.0238E+00
0.82334	3.2487E+00	1.0952E+00
0.82454	3.2354E+00	1.1349E+00
0.82574	3.2116E+00	1.1640E+00
0.82694	3.2143E+00	1.1455E+00
0.82813	3.2381E+00	1.1323E+00
0.82933	3.2090E+00	1.2143E+00
0.83053	3.1746E+00	1.2381E+00
0.83173	3.1772E+00	1.2143E+00
0.83293	3.2116E+00	1.2222E+00
0.83413	3.2460E+00	1.2513E+00
0.83533	3.2381E+00	1.2646E+00
0.83653	3.1720E+00	1.3889E+00
0.83773	3.1852E+00	1.3862E+00
0.83893	3.1614E+00	1.5423E+00
0.84013	3.0741E+00	1.7302E+00
0.84134	2.9815E+00	1.9497E+00
0.84254	2.9471E+00	2.0317E+00
0.84374	2.9603E+00	1.9656E+00
0.84494	2.9471E+00	2.1852E+00
0.84614	2.9392E+00	2.2196E+00
0.84735	2.9471E+00	2.2540E+00
0.84855	3.0079E+00	2.4048E+00
0.84975	3.0212E+00	2.4339E+00
