Material: main / WSe2 / Hsu-2L
Optical constants. C. Hsu, R. Frisenda, R. Schmidt, A. Arora, S. M. de Vasconcellos, R. Bratschitsch, H. S. J. van der Zant, A. Castellanos-Gomez. Thickness-dependent refractive index of 1L, 2L, and 3L MoS2, MoSe2, WS2, and WSe2, Adv. Optical Mater. 7, 1900239 (2019) (Numerical data kindly provided by Andres Castellanos-Gomez)
Comments: 2-layer (2L)
Specs: {"n_absolute": true, "wavelength_vacuum": true, "film_thickness": "2L"}
wavelength (um)	n	k
0.39697	3.5171E+00	1.8313E+00
0.39806	3.5251E+00	1.8974E+00
0.39914	3.6282E+00	1.9636E+00
0.40023	3.6150E+00	1.9186E+00
0.40132	3.6124E+00	1.8895E+00
0.40240	3.6415E+00	1.8868E+00
0.40349	3.6124E+00	1.8313E+00
0.40458	3.5833E+00	1.8075E+00
0.40567	3.5647E+00	1.8101E+00
0.40676	3.5515E+00	1.8128E+00
0.40785	3.5595E+00	1.8260E+00
0.40894	3.5462E+00	1.8286E+00
0.41002	3.5436E+00	1.8366E+00
0.41111	3.5409E+00	1.8339E+00
0.41221	3.5489E+00	1.8313E+00
0.41330	3.5462E+00	1.8286E+00
0.41439	3.5595E+00	1.8207E+00
0.41548	3.5621E+00	1.8075E+00
0.41657	3.5436E+00	1.7889E+00
0.41766	3.5462E+00	1.7757E+00
0.41876	3.5330E+00	1.7678E+00
0.41985	3.5515E+00	1.7651E+00
0.42094	3.5595E+00	1.7625E+00
0.42204	3.5727E+00	1.7546E+00
0.42313	3.5965E+00	1.7625E+00
0.42423	3.6203E+00	1.7651E+00
0.42532	3.6600E+00	1.7731E+00
0.42642	3.6785E+00	1.7810E+00
0.42751	3.7076E+00	1.7784E+00
0.42861	3.7420E+00	1.7810E+00
0.42970	3.7764E+00	1.7889E+00
0.43080	3.8161E+00	1.8022E+00
0.43190	3.8663E+00	1.8154E+00
0.43300	3.9060E+00	1.8339E+00
0.43409	3.9457E+00	1.8471E+00
0.43519	3.9854E+00	1.8657E+00
0.43629	4.0304E+00	1.8789E+00
0.43739	4.0753E+00	1.8974E+00
0.43849	4.1097E+00	1.9159E+00
0.43959	4.1388E+00	1.9292E+00
0.44069	4.1838E+00	1.9477E+00
0.44179	4.2076E+00	1.9662E+00
0.44289	4.2367E+00	1.9794E+00
0.44399	4.2711E+00	1.9979E+00
0.44509	4.3055E+00	2.0112E+00
0.44619	4.3346E+00	2.0244E+00
0.44729	4.3690E+00	2.0323E+00
0.44840	4.3981E+00	2.0297E+00
0.44950	4.4378E+00	2.0270E+00
0.45060	4.4721E+00	2.0138E+00
0.45171	4.5065E+00	2.0059E+00
0.45281	4.5409E+00	1.9821E+00
0.45391	4.5806E+00	1.9688E+00
0.45502	4.6044E+00	1.9397E+00
0.45612	4.6441E+00	1.9265E+00
0.45723	4.6679E+00	1.8921E+00
0.45834	4.6917E+00	1.8630E+00
0.45944	4.7050E+00	1.8339E+00
0.46055	4.7235E+00	1.7995E+00
0.46165	4.7367E+00	1.7704E+00
0.46276	4.7499E+00	1.7360E+00
0.46387	4.7579E+00	1.7122E+00
0.46498	4.7605E+00	1.6725E+00
0.46608	4.7684E+00	1.6487E+00
0.46719	4.7658E+00	1.6196E+00
0.46830	4.7684E+00	1.6011E+00
0.46941	4.7605E+00	1.5667E+00
0.47052	4.7526E+00	1.5429E+00
0.47163	4.7499E+00	1.5244E+00
0.47274	4.7473E+00	1.5059E+00
0.47385	4.7341E+00	1.4927E+00
0.47496	4.7314E+00	1.4741E+00
0.47607	4.7182E+00	1.4556E+00
0.47718	4.7155E+00	1.4424E+00
0.47830	4.7076E+00	1.4345E+00
0.47941	4.6944E+00	1.4212E+00
0.48052	4.6864E+00	1.4133E+00
0.48163	4.6785E+00	1.4054E+00
0.48275	4.6706E+00	1.3974E+00
0.48386	4.6573E+00	1.4001E+00
0.48498	4.6494E+00	1.3921E+00
0.48609	4.6362E+00	1.3895E+00
0.48720	4.6229E+00	1.3815E+00
0.48832	4.6097E+00	1.3842E+00
0.48943	4.5912E+00	1.3815E+00
0.49055	4.5833E+00	1.3789E+00
0.49167	4.5753E+00	1.3815E+00
0.49278	4.5621E+00	1.3842E+00
0.49390	4.5489E+00	1.3868E+00
0.49502	4.5356E+00	1.3895E+00
0.49613	4.5277E+00	1.3974E+00
0.49725	4.5145E+00	1.4001E+00
0.49837	4.5013E+00	1.4080E+00
0.49949	4.4827E+00	1.4106E+00
0.50061	4.4642E+00	1.4133E+00
0.50173	4.4510E+00	1.4212E+00
0.50285	4.4378E+00	1.4292E+00
0.50397	4.4245E+00	1.4424E+00
0.50509	4.4007E+00	1.4503E+00
0.50621	4.3875E+00	1.4636E+00
0.50733	4.3743E+00	1.4768E+00
0.50845	4.3557E+00	1.4900E+00
0.50957	4.3425E+00	1.5085E+00
0.51069	4.3293E+00	1.5218E+00
0.51181	4.3161E+00	1.5403E+00
0.51294	4.2975E+00	1.5535E+00
0.51406	4.2843E+00	1.5773E+00
0.51518	4.2552E+00	1.5905E+00
0.51630	4.2473E+00	1.6143E+00
0.51743	4.2182E+00	1.6329E+00
0.51855	4.2102E+00	1.6620E+00
0.51968	4.1864E+00	1.6858E+00
0.52080	4.1785E+00	1.7096E+00
0.52193	4.1653E+00	1.7281E+00
0.52305	4.1520E+00	1.7519E+00
0.52418	4.1494E+00	1.7757E+00
0.52530	4.1415E+00	1.7889E+00
0.52643	4.1388E+00	1.8022E+00
0.52756	4.1362E+00	1.8154E+00
0.52868	4.1335E+00	1.8286E+00
0.52981	4.1415E+00	1.8366E+00
0.53094	4.1494E+00	1.8445E+00
0.53207	4.1573E+00	1.8471E+00
0.53320	4.1653E+00	1.8498E+00
0.53432	4.1891E+00	1.8524E+00
0.53545	4.2023E+00	1.8445E+00
0.53658	4.2314E+00	1.8419E+00
0.53771	4.2499E+00	1.8286E+00
0.53884	4.2949E+00	1.8260E+00
0.53997	4.3240E+00	1.8128E+00
0.54110	4.3637E+00	1.8048E+00
0.54223	4.4087E+00	1.7969E+00
0.54337	4.4430E+00	1.7837E+00
0.54450	4.4880E+00	1.7704E+00
0.54563	4.5383E+00	1.7625E+00
0.54676	4.5833E+00	1.7440E+00
0.54789	4.6335E+00	1.7307E+00
0.54903	4.6785E+00	1.7122E+00
0.55016	4.7341E+00	1.6990E+00
0.55129	4.7843E+00	1.6858E+00
0.55243	4.8293E+00	1.6673E+00
0.55356	4.8796E+00	1.6540E+00
0.55470	4.9245E+00	1.6355E+00
0.55583	4.9642E+00	1.6170E+00
0.55697	5.0145E+00	1.6038E+00
0.55810	5.0542E+00	1.5852E+00
0.55924	5.0833E+00	1.5614E+00
0.56037	5.1177E+00	1.5376E+00
0.56151	5.1573E+00	1.5191E+00
0.56265	5.1811E+00	1.4900E+00
0.56378	5.2102E+00	1.4662E+00
0.56492	5.2341E+00	1.4424E+00
0.56606	5.2579E+00	1.4186E+00
0.56720	5.2658E+00	1.3842E+00
0.56834	5.2737E+00	1.3551E+00
0.56947	5.2870E+00	1.3313E+00
0.57061	5.2790E+00	1.2969E+00
0.57175	5.2817E+00	1.2678E+00
0.57289	5.2896E+00	1.2440E+00
0.57403	5.2817E+00	1.2149E+00
0.57517	5.2684E+00	1.1805E+00
0.57631	5.2605E+00	1.1567E+00
0.57745	5.2473E+00	1.1329E+00
0.57860	5.2393E+00	1.1091E+00
0.57974	5.2261E+00	1.0852E+00
0.58088	5.2076E+00	1.0614E+00
0.58202	5.1944E+00	1.0429E+00
0.58316	5.1811E+00	1.0297E+00
0.58431	5.1679E+00	1.0112E+00
0.58545	5.1547E+00	9.9265E-01
0.58659	5.1415E+00	9.7942E-01
0.58774	5.1335E+00	9.6620E-01
0.58888	5.1256E+00	9.5297E-01
0.59002	5.1177E+00	9.3445E-01
0.59117	5.1256E+00	9.2122E-01
0.59231	5.1229E+00	9.0800E-01
0.59346	5.1150E+00	8.9477E-01
0.59460	5.1177E+00	8.7625E-01
0.59575	5.1150E+00	8.6302E-01
0.59690	5.1124E+00	8.4979E-01
0.59804	5.1097E+00	8.3657E-01
0.59919	5.1177E+00	8.1805E-01
0.60034	5.1150E+00	8.0482E-01
0.60148	5.1124E+00	7.9159E-01
0.60263	5.1150E+00	7.7308E-01
0.60378	5.1124E+00	7.5985E-01
0.60493	5.1150E+00	7.4133E-01
0.60607	5.1124E+00	7.2281E-01
0.60722	5.1097E+00	7.0429E-01
0.60837	5.1177E+00	6.9106E-01
0.60952	5.1150E+00	6.7255E-01
0.61067	5.1177E+00	6.5932E-01
0.61182	5.1150E+00	6.4080E-01
0.61297	5.1177E+00	6.2757E-01
0.61412	5.1150E+00	6.0905E-01
0.61527	5.1124E+00	5.9583E-01
0.61642	5.1044E+00	5.8260E-01
0.61758	5.1018E+00	5.6937E-01
0.61873	5.0938E+00	5.5614E-01
0.61988	5.0965E+00	5.3763E-01
0.62103	5.0938E+00	5.2440E-01
0.62219	5.0965E+00	5.1117E-01
0.62334	5.0991E+00	4.9861E-01
0.62449	5.0965E+00	4.8293E-01
0.62565	5.0938E+00	4.6613E-01
0.62680	5.0912E+00	4.5348E-01
0.62795	5.0938E+00	4.4376E-01
0.62911	5.0859E+00	4.2637E-01
0.63026	5.0833E+00	4.2164E-01
0.63142	5.0859E+00	4.0686E-01
0.63257	5.0833E+00	3.9914E-01
0.63373	5.0859E+00	3.8485E-01
0.63488	5.0886E+00	3.7428E-01
0.63604	5.0859E+00	3.6070E-01
0.63720	5.0833E+00	3.5131E-01
0.63835	5.0753E+00	3.4768E-01
0.63951	5.0727E+00	3.3576E-01
0.64067	5.0700E+00	3.2887E-01
0.64183	5.0621E+00	3.2085E-01
0.64298	5.0595E+00	3.1196E-01
0.64414	5.0621E+00	3.0725E-01
0.64530	5.0700E+00	2.9319E-01
0.64646	5.0674E+00	2.8714E-01
0.64762	5.0700E+00	2.7378E-01
0.64878	5.0674E+00	2.6826E-01
0.64994	5.0700E+00	2.6127E-01
0.65110	5.0780E+00	2.5000E-01
0.65226	5.0700E+00	2.4992E-01
0.65342	5.0674E+00	2.4195E-01
0.65458	5.0700E+00	2.3255E-01
0.65574	5.0674E+00	2.3079E-01
0.65690	5.0647E+00	2.2631E-01
0.65806	5.0674E+00	2.1591E-01
0.65923	5.0700E+00	2.1575E-01
0.66039	5.0621E+00	2.0476E-01
0.66155	5.0595E+00	2.0000E-01
0.66271	5.0568E+00	1.9840E-01
0.66388	5.0542E+00	1.8478E-01
0.66504	5.0462E+00	1.8475E-01
0.66620	5.0436E+00	1.7877E-01
0.66737	5.0462E+00	1.7021E-01
0.66853	5.0383E+00	1.7021E-01
0.66970	5.0356E+00	1.7013E-01
0.67086	5.0383E+00	1.6055E-01
0.67203	5.0304E+00	1.5625E-01
0.67319	5.0224E+00	1.5625E-01
0.67436	5.0145E+00	1.5511E-01
0.67552	5.0224E+00	1.4286E-01
0.67669	5.0092E+00	1.4286E-01
0.67786	5.0065E+00	1.4286E-01
0.67902	4.9986E+00	1.4264E-01
0.68019	4.9907E+00	1.3849E-01
0.68136	4.9827E+00	1.3490E-01
0.68253	4.9695E+00	1.3416E-01
0.68369	4.9669E+00	1.3000E-01
0.68486	4.9589E+00	1.2999E-01
0.68603	4.9563E+00	1.2580E-01
0.68720	4.9483E+00	1.2092E-01
0.68837	4.9404E+00	1.1765E-01
0.68954	4.9430E+00	1.1350E-01
0.69071	4.9351E+00	1.0909E-01
0.69188	4.9272E+00	1.0577E-01
0.69305	4.9192E+00	1.0577E-01
0.69422	4.9060E+00	1.0577E-01
0.69539	4.8981E+00	1.0577E-01
0.69656	4.8848E+00	1.0577E-01
0.69773	4.8769E+00	1.0577E-01
0.69890	4.8637E+00	1.0577E-01
0.70007	4.8505E+00	1.0122E-01
0.70124	4.8372E+00	9.4340E-02
0.70242	4.8240E+00	9.4339E-02
0.70359	4.8161E+00	9.0530E-02
0.70476	4.8081E+00	8.6420E-02
0.70594	4.7896E+00	8.3333E-02
0.70711	4.7764E+00	8.3333E-02
0.70828	4.7684E+00	8.3334E-02
0.70946	4.7552E+00	8.7020E-02
0.71063	4.7367E+00	9.4340E-02
0.71180	4.7182E+00	9.4340E-02
0.71298	4.6944E+00	9.5037E-02
0.71415	4.6759E+00	1.0256E-01
0.71533	4.6520E+00	1.0579E-01
0.71650	4.6282E+00	1.1765E-01
0.71768	4.6044E+00	1.2270E-01
0.71886	4.5806E+00	1.3535E-01
0.72003	4.5727E+00	1.4412E-01
0.72121	4.5489E+00	1.6230E-01
0.72239	4.5251E+00	1.8129E-01
0.72356	4.4960E+00	2.0060E-01
0.72474	4.4721E+00	2.1826E-01
0.72592	4.4483E+00	2.4091E-01
0.72710	4.4139E+00	2.6465E-01
0.72827	4.3901E+00	2.9140E-01
0.72945	4.3663E+00	3.2534E-01
0.73063	4.3425E+00	3.5697E-01
0.73181	4.3187E+00	3.9842E-01
0.73299	4.2949E+00	4.4429E-01
0.73417	4.2711E+00	4.9758E-01
0.73535	4.2420E+00	5.5264E-01
0.73653	4.2288E+00	6.0820E-01
0.73771	4.2261E+00	6.6905E-01
0.73889	4.2182E+00	7.4047E-01
0.74007	4.2261E+00	8.1190E-01
0.74125	4.2393E+00	8.7804E-01
0.74243	4.2632E+00	9.3889E-01
0.74361	4.2870E+00	1.0156E+00
0.74480	4.3108E+00	1.0765E+00
0.74598	4.3663E+00	1.1161E+00
0.74716	4.4219E+00	1.1399E+00
0.74834	4.4827E+00	1.1585E+00
0.74952	4.5542E+00	1.1558E+00
0.75071	4.6309E+00	1.1320E+00
0.75189	4.7182E+00	1.0923E+00
0.75307	4.8108E+00	1.0315E+00
0.75426	4.9087E+00	9.6005E-01
0.75544	5.0013E+00	8.8862E-01
0.75663	5.0938E+00	8.0661E-01
0.75781	5.1811E+00	7.1931E-01
0.75900	5.2579E+00	6.3730E-01
0.76018	5.3293E+00	5.5000E-01
0.76137	5.3901E+00	4.7626E-01
0.76255	5.4404E+00	3.9560E-01
0.76374	5.4854E+00	3.2049E-01
0.76492	5.5251E+00	2.6202E-01
0.76611	5.5595E+00	2.0107E-01
0.76730	5.5886E+00	1.4894E-01
0.76848	5.6018E+00	9.6685E-02
0.76967	5.6150E+00	5.5194E-02
0.77086	5.6229E+00	1.6213E-02
0.77205	5.6256E+00	0.0000E+00
0.77323	5.6229E+00	0.0000E+00
0.77442	5.6256E+00	0.0000E+00
0.77561	5.6229E+00	0.0000E+00
0.77680	5.6150E+00	0.0000E+00
0.77799	5.5912E+00	0.0000E+00
0.77918	5.5886E+00	0.0000E+00
0.78037	5.5806E+00	0.0000E+00
0.78156	5.5621E+00	0.0000E+00
0.78274	5.5489E+00	0.0000E+00
0.78393	5.5145E+00	0.0000E+00
0.78513	5.5013E+00	0.0000E+00
0.78632	5.4827E+00	0.0000E+00
0.78751	5.4589E+00	0.0000E+00
0.78870	5.4351E+00	0.0000E+00
0.78989	5.4113E+00	0.0000E+00
0.79108	5.3928E+00	0.0000E+00
0.79227	5.3743E+00	0.0000E+00
0.79346	5.3557E+00	0.0000E+00
0.79466	5.3425E+00	0.0000E+00
0.79585	5.3028E+00	0.0000E+00
0.79704	5.2684E+00	0.0000E+00
0.79823	5.2341E+00	0.0000E+00
0.79943	5.2155E+00	0.0000E+00
0.80062	5.1759E+00	0.0000E+00
0.80181	5.1150E+00	0.0000E+00
0.80301	5.0859E+00	0.0000E+00
0.80420	5.0886E+00	0.0000E+00
0.80540	5.0224E+00	0.0000E+00
0.80659	4.9510E+00	0.0000E+00
0.80779	4.8848E+00	0.0000E+00
0.80898	4.8081E+00	0.0000E+00
0.81018	4.7367E+00	0.0000E+00
0.81137	4.5542E+00	0.0000E+00
0.81257	4.4510E+00	0.0000E+00
0.81376	4.3478E+00	0.0000E+00
0.81496	4.2817E+00	0.0000E+00
0.81616	4.2526E+00	0.0000E+00
0.81735	4.1759E+00	0.0000E+00
0.81855	4.0304E+00	0.0000E+00
0.81975	3.9642E+00	0.0000E+00
0.82094	3.8822E+00	0.0000E+00
0.82214	3.7843E+00	0.0000E+00
0.82334	3.6653E+00	0.0000E+00
0.82454	3.5462E+00	0.0000E+00
0.82574	3.4589E+00	0.0000E+00
0.82694	3.4087E+00	0.0000E+00
0.82813	3.3478E+00	0.0000E+00
0.82933	3.2499E+00	0.0000E+00
0.83053	3.1362E+00	0.0000E+00
0.83173	3.0489E+00	0.0000E+00
0.83293	2.9933E+00	0.0000E+00
0.83413	2.9325E+00	0.0000E+00
0.83533	2.8399E+00	0.0000E+00
0.83653	2.6944E+00	0.0000E+00
0.83773	2.6388E+00	0.0000E+00
0.83893	2.5568E+00	0.0000E+00
0.84013	2.5647E+00	0.0000E+00
0.84134	2.4669E+00	0.0000E+00
0.84254	2.3637E+00	0.0000E+00
0.84374	2.2658E+00	0.0000E+00
0.84494	2.1573E+00	0.0000E+00
0.84614	1.9642E+00	0.0000E+00
0.84735	1.8505E+00	0.0000E+00
0.84855	1.8901E+00	0.0000E+00
0.84975	1.9087E+00	0.0000E+00
