Material: inorganic / MoTe2 / Munkhbat-e
Optical constants. B. Munkhbat, P. Wrobel, T. J. Antosiewicz, T. O. Shegai. Optical constants of several multilayer transition metal dichalcogenides spectroscopic ellipsometry in the 300–1700 nm range: High index, anisotropy, and hyperbolicity, ACS Photonics 9, 2398–2407 (2022) (Numerical data kindly provided by Tomasz Antosiewicz)
Comments: Multilayer flakes. Out-of-plane (extraordinary ray, e). Room temperature.
Specs: {"n_absolute": true, "wavelength_vacuum": true}
wavelength (um)	n
3.000000E-01	3.704850E+00
3.030000E-01	3.695126E+00
3.060000E-01	3.685757E+00
3.090000E-01	3.676726E+00
3.120000E-01	3.668015E+00
3.150000E-01	3.659608E+00
3.180000E-01	3.651492E+00
3.210000E-01	3.643652E+00
3.240000E-01	3.636075E+00
3.270000E-01	3.628749E+00
3.300000E-01	3.621664E+00
3.330000E-01	3.614807E+00
3.360000E-01	3.608169E+00
3.390000E-01	3.601740E+00
3.420000E-01	3.595512E+00
3.450000E-01	3.589475E+00
3.480000E-01	3.583622E+00
3.510000E-01	3.577944E+00
3.540000E-01	3.572436E+00
3.570000E-01	3.567089E+00
3.600000E-01	3.561898E+00
3.630000E-01	3.556855E+00
3.660000E-01	3.551957E+00
3.690000E-01	3.547196E+00
3.720000E-01	3.542567E+00
3.750000E-01	3.538066E+00
3.780000E-01	3.533687E+00
3.810000E-01	3.529427E+00
3.840000E-01	3.525280E+00
3.870000E-01	3.521243E+00
3.900000E-01	3.517312E+00
3.930000E-01	3.513482E+00
3.960000E-01	3.509751E+00
3.990000E-01	3.506115E+00
4.020000E-01	3.502571E+00
4.050000E-01	3.499115E+00
4.080000E-01	3.495744E+00
4.110000E-01	3.492456E+00
4.140000E-01	3.489248E+00
4.170000E-01	3.486117E+00
4.200000E-01	3.483061E+00
4.230000E-01	3.480077E+00
4.260000E-01	3.477163E+00
4.290000E-01	3.474316E+00
4.320000E-01	3.471536E+00
4.350000E-01	3.468819E+00
4.380000E-01	3.466163E+00
4.410000E-01	3.463567E+00
4.440000E-01	3.461029E+00
4.470000E-01	3.458547E+00
4.500000E-01	3.456120E+00
4.530000E-01	3.453746E+00
4.560000E-01	3.451422E+00
4.590000E-01	3.449149E+00
4.620000E-01	3.446924E+00
4.650000E-01	3.444745E+00
4.680000E-01	3.442613E+00
4.710000E-01	3.440525E+00
4.740000E-01	3.438479E+00
4.770000E-01	3.436476E+00
4.800000E-01	3.434513E+00
4.830000E-01	3.432590E+00
4.860000E-01	3.430706E+00
4.890000E-01	3.428859E+00
4.920000E-01	3.427048E+00
4.950000E-01	3.425273E+00
4.980000E-01	3.423533E+00
5.010000E-01	3.421826E+00
5.040000E-01	3.420152E+00
5.070000E-01	3.418510E+00
5.100000E-01	3.416899E+00
5.130000E-01	3.415318E+00
5.160000E-01	3.413767E+00
5.190000E-01	3.412245E+00
5.220000E-01	3.410750E+00
5.250000E-01	3.409283E+00
5.280000E-01	3.407843E+00
5.310000E-01	3.406429E+00
5.340000E-01	3.405040E+00
5.370000E-01	3.403676E+00
5.400000E-01	3.402337E+00
5.430000E-01	3.401021E+00
5.460000E-01	3.399727E+00
5.490000E-01	3.398457E+00
5.520000E-01	3.397209E+00
5.550000E-01	3.395981E+00
5.580000E-01	3.394775E+00
5.610000E-01	3.393590E+00
5.640000E-01	3.392424E+00
5.670000E-01	3.391278E+00
5.700000E-01	3.390152E+00
5.730000E-01	3.389044E+00
5.760000E-01	3.387954E+00
5.790000E-01	3.386882E+00
5.820000E-01	3.385827E+00
5.850000E-01	3.384790E+00
5.880000E-01	3.383769E+00
5.910000E-01	3.382765E+00
5.940000E-01	3.381777E+00
5.970000E-01	3.380804E+00
6.000000E-01	3.379847E+00
6.030000E-01	3.378905E+00
6.060000E-01	3.377978E+00
6.090000E-01	3.377064E+00
6.120000E-01	3.376165E+00
6.150000E-01	3.375280E+00
6.180000E-01	3.374408E+00
6.210000E-01	3.373550E+00
6.240000E-01	3.372704E+00
6.270000E-01	3.371872E+00
6.300000E-01	3.371051E+00
6.330000E-01	3.370243E+00
6.360000E-01	3.369447E+00
6.390000E-01	3.368662E+00
6.420000E-01	3.367890E+00
6.450000E-01	3.367128E+00
6.480000E-01	3.366377E+00
6.510000E-01	3.365637E+00
6.540000E-01	3.364908E+00
6.570000E-01	3.364189E+00
6.600000E-01	3.363481E+00
6.630000E-01	3.362782E+00
6.660000E-01	3.362093E+00
6.690000E-01	3.361414E+00
6.720000E-01	3.360744E+00
6.750000E-01	3.360084E+00
6.780000E-01	3.359433E+00
6.810000E-01	3.358791E+00
6.840000E-01	3.358157E+00
6.870000E-01	3.357532E+00
6.900000E-01	3.356916E+00
6.930000E-01	3.356307E+00
6.960000E-01	3.355708E+00
6.990000E-01	3.355115E+00
7.020000E-01	3.354531E+00
7.050000E-01	3.353955E+00
7.080000E-01	3.353386E+00
7.110000E-01	3.352825E+00
7.140000E-01	3.352271E+00
7.170000E-01	3.351724E+00
7.200000E-01	3.351184E+00
7.230000E-01	3.350652E+00
7.260000E-01	3.350126E+00
7.290000E-01	3.349606E+00
7.320000E-01	3.349094E+00
7.350000E-01	3.348587E+00
7.380000E-01	3.348088E+00
7.410000E-01	3.347594E+00
7.440000E-01	3.347107E+00
7.470000E-01	3.346626E+00
7.500000E-01	3.346150E+00
7.530000E-01	3.345681E+00
7.560000E-01	3.345217E+00
7.590000E-01	3.344759E+00
7.620000E-01	3.344307E+00
7.650000E-01	3.343860E+00
7.680000E-01	3.343418E+00
7.710000E-01	3.342982E+00
7.740000E-01	3.342551E+00
7.770000E-01	3.342125E+00
7.800000E-01	3.341704E+00
7.830000E-01	3.341288E+00
7.860000E-01	3.340877E+00
7.890000E-01	3.340471E+00
7.920000E-01	3.340070E+00
7.950000E-01	3.339673E+00
7.980000E-01	3.339281E+00
8.010000E-01	3.338893E+00
8.040000E-01	3.338510E+00
8.070000E-01	3.338131E+00
8.100000E-01	3.337757E+00
8.130000E-01	3.337387E+00
8.160000E-01	3.337021E+00
8.190000E-01	3.336659E+00
8.220000E-01	3.336301E+00
8.250000E-01	3.335947E+00
8.280000E-01	3.335597E+00
8.310000E-01	3.335251E+00
8.340000E-01	3.334909E+00
8.370000E-01	3.334571E+00
8.400000E-01	3.334236E+00
8.430000E-01	3.333905E+00
8.460000E-01	3.333578E+00
8.490000E-01	3.333254E+00
8.520000E-01	3.332934E+00
8.550000E-01	3.332617E+00
8.580000E-01	3.332304E+00
8.610000E-01	3.331994E+00
8.640000E-01	3.331687E+00
8.670000E-01	3.331383E+00
8.700000E-01	3.331083E+00
8.730000E-01	3.330786E+00
8.760000E-01	3.330492E+00
8.790000E-01	3.330201E+00
8.820000E-01	3.329913E+00
8.850000E-01	3.329628E+00
8.880000E-01	3.329346E+00
8.910000E-01	3.329067E+00
8.940000E-01	3.328791E+00
8.970000E-01	3.328517E+00
9.000000E-01	3.328247E+00
9.030000E-01	3.327979E+00
9.060000E-01	3.327714E+00
9.090000E-01	3.327451E+00
9.120000E-01	3.327192E+00
9.150000E-01	3.326934E+00
9.180000E-01	3.326680E+00
9.210000E-01	3.326428E+00
9.240000E-01	3.326178E+00
9.270000E-01	3.325931E+00
9.300000E-01	3.325687E+00
9.330000E-01	3.325444E+00
9.360000E-01	3.325205E+00
9.390000E-01	3.324967E+00
9.420000E-01	3.324732E+00
9.450000E-01	3.324499E+00
9.480000E-01	3.324268E+00
9.510000E-01	3.324040E+00
9.540000E-01	3.323814E+00
9.570000E-01	3.323590E+00
9.600000E-01	3.323368E+00
9.630000E-01	3.323148E+00
9.660000E-01	3.322930E+00
9.690000E-01	3.322714E+00
9.720000E-01	3.322501E+00
9.750000E-01	3.322289E+00
9.780000E-01	3.322080E+00
9.810000E-01	3.321872E+00
9.840000E-01	3.321666E+00
9.870000E-01	3.321462E+00
9.900000E-01	3.321260E+00
9.930000E-01	3.321060E+00
9.960000E-01	3.320862E+00
9.990000E-01	3.320666E+00
1.005000E+00	3.320278E+00
1.012500E+00	3.319803E+00
1.020000E+00	3.319340E+00
1.027500E+00	3.318886E+00
1.035000E+00	3.318442E+00
1.042500E+00	3.318008E+00
1.050000E+00	3.317584E+00
1.057500E+00	3.317169E+00
1.065000E+00	3.316762E+00
1.072500E+00	3.316364E+00
1.080000E+00	3.315975E+00
1.087500E+00	3.315593E+00
1.095000E+00	3.315220E+00
1.102500E+00	3.314855E+00
1.110000E+00	3.314496E+00
1.117500E+00	3.314146E+00
1.125000E+00	3.313802E+00
1.132500E+00	3.313465E+00
1.140000E+00	3.313135E+00
1.147500E+00	3.312811E+00
1.155000E+00	3.312494E+00
1.162500E+00	3.312183E+00
1.170000E+00	3.311878E+00
1.177500E+00	3.311579E+00
1.185000E+00	3.311286E+00
1.192500E+00	3.310998E+00
1.200000E+00	3.310716E+00
1.207500E+00	3.310439E+00
1.215000E+00	3.310167E+00
1.222500E+00	3.309900E+00
1.230000E+00	3.309638E+00
1.237500E+00	3.309381E+00
1.245000E+00	3.309129E+00
1.252500E+00	3.308881E+00
1.260000E+00	3.308638E+00
1.267500E+00	3.308399E+00
1.275000E+00	3.308164E+00
1.282500E+00	3.307934E+00
1.290000E+00	3.307707E+00
1.297500E+00	3.307485E+00
1.305000E+00	3.307266E+00
1.312500E+00	3.307051E+00
1.320000E+00	3.306840E+00
1.327500E+00	3.306632E+00
1.335000E+00	3.306428E+00
1.342500E+00	3.306228E+00
1.350000E+00	3.306030E+00
1.357500E+00	3.305837E+00
1.365000E+00	3.305646E+00
1.372500E+00	3.305458E+00
1.380000E+00	3.305274E+00
1.387500E+00	3.305092E+00
1.395000E+00	3.304914E+00
1.402500E+00	3.304738E+00
1.410000E+00	3.304565E+00
1.417500E+00	3.304395E+00
1.425000E+00	3.304228E+00
1.432500E+00	3.304063E+00
1.440000E+00	3.303901E+00
1.447500E+00	3.303741E+00
1.455000E+00	3.303584E+00
1.462500E+00	3.303429E+00
1.470000E+00	3.303277E+00
1.477500E+00	3.303127E+00
1.485000E+00	3.302979E+00
1.492500E+00	3.302834E+00
1.500000E+00	3.302691E+00
1.507500E+00	3.302550E+00
1.515000E+00	3.302411E+00
1.522500E+00	3.302274E+00
1.530000E+00	3.302139E+00
1.537500E+00	3.302006E+00
1.545000E+00	3.301875E+00
1.552500E+00	3.301746E+00
1.560000E+00	3.301619E+00
1.567500E+00	3.301493E+00
1.575000E+00	3.301370E+00
1.582500E+00	3.301248E+00
1.590000E+00	3.301128E+00
1.597500E+00	3.301010E+00
1.605000E+00	3.300893E+00
1.612500E+00	3.300778E+00
1.620000E+00	3.300664E+00
1.627500E+00	3.300553E+00
1.635000E+00	3.300442E+00
1.642500E+00	3.300333E+00
1.650000E+00	3.300226E+00
1.657500E+00	3.300120E+00
1.665000E+00	3.300016E+00
1.672500E+00	3.299913E+00
1.680000E+00	3.299811E+00
1.687500E+00	3.299711E+00
