Material: inorganic / MoTe2 / Munkhbat-o
Optical constants. B. Munkhbat, P. Wrobel, T. J. Antosiewicz, T. O. Shegai. Optical constants of several multilayer transition metal dichalcogenides spectroscopic ellipsometry in the 300–1700 nm range: High index, anisotropy, and hyperbolicity, ACS Photonics 9, 2398–2407 (2022) (Numerical data kindly provided by Tomasz Antosiewicz)
Comments: Multilayer flakes. In-plane (ordinary ray, o). Room temperature.
Specs: {"n_absolute": true, "wavelength_vacuum": true}
wavelength (um)	n	k
3.000000e-01	2.475338e+00	2.744236e+00
3.030000e-01	2.509597e+00	2.769776e+00
3.060000e-01	2.550055e+00	2.793668e+00
3.090000e-01	2.596363e+00	2.813598e+00
3.120000e-01	2.647185e+00	2.826992e+00
3.150000e-01	2.699634e+00	2.831441e+00
3.180000e-01	2.748760e+00	2.825860e+00
3.210000e-01	2.788063e+00	2.812761e+00
3.240000e-01	2.812935e+00	2.800440e+00
3.270000e-01	2.826914e+00	2.800706e+00
3.300000e-01	2.843494e+00	2.819489e+00
3.330000e-01	2.877279e+00	2.849728e+00
3.360000e-01	2.931983e+00	2.872272e+00
3.390000e-01	2.991894e+00	2.879869e+00
3.420000e-01	3.051399e+00	2.876332e+00
3.450000e-01	3.107830e+00	2.863769e+00
3.480000e-01	3.159360e+00	2.844072e+00
3.510000e-01	3.204763e+00	2.819142e+00
3.540000e-01	3.243353e+00	2.790879e+00
3.570000e-01	3.274930e+00	2.761118e+00
3.600000e-01	3.299718e+00	2.731538e+00
3.630000e-01	3.318286e+00	2.703601e+00
3.660000e-01	3.331466e+00	2.678500e+00
3.690000e-01	3.340258e+00	2.657140e+00
3.720000e-01	3.345760e+00	2.640138e+00
3.750000e-01	3.349094e+00	2.627842e+00
3.780000e-01	3.351360e+00	2.620350e+00
3.810000e-01	3.353592e+00	2.617545e+00
3.840000e-01	3.356729e+00	2.619128e+00
3.870000e-01	3.361593e+00	2.624642e+00
3.900000e-01	3.368871e+00	2.633509e+00
3.930000e-01	3.379109e+00	2.645054e+00
3.960000e-01	3.392697e+00	2.658536e+00
3.990000e-01	3.409865e+00	2.673173e+00
4.020000e-01	3.430687e+00	2.688171e+00
4.050000e-01	3.455072e+00	2.702757e+00
4.080000e-01	3.482780e+00	2.716203e+00
4.110000e-01	3.513424e+00	2.727860e+00
4.140000e-01	3.546497e+00	2.737184e+00
4.170000e-01	3.581390e+00	2.743765e+00
4.200000e-01	3.617421e+00	2.747346e+00
4.230000e-01	3.653880e+00	2.747834e+00
4.260000e-01	3.690060e+00	2.745311e+00
4.290000e-01	3.725301e+00	2.740024e+00
4.320000e-01	3.759032e+00	2.732373e+00
4.350000e-01	3.790800e+00	2.722883e+00
4.380000e-01	3.820300e+00	2.712175e+00
4.410000e-01	3.847391e+00	2.700926e+00
4.440000e-01	3.872109e+00	2.689832e+00
4.470000e-01	3.894661e+00	2.679566e+00
4.500000e-01	3.915422e+00	2.670746e+00
4.530000e-01	3.934918e+00	2.663892e+00
4.560000e-01	3.953812e+00	2.659405e+00
4.590000e-01	3.972880e+00	2.657527e+00
4.620000e-01	3.992982e+00	2.658322e+00
4.650000e-01	4.015035e+00	2.661640e+00
4.680000e-01	4.039965e+00	2.667097e+00
4.710000e-01	4.068657e+00	2.674048e+00
4.740000e-01	4.101890e+00	2.681573e+00
4.770000e-01	4.140248e+00	2.688483e+00
4.800000e-01	4.184028e+00	2.693340e+00
4.830000e-01	4.233135e+00	2.694530e+00
4.860000e-01	4.286990e+00	2.690372e+00
4.890000e-01	4.344476e+00	2.679278e+00
4.920000e-01	4.403944e+00	2.659955e+00
4.950000e-01	4.463306e+00	2.631607e+00
4.980000e-01	4.520223e+00	2.594106e+00
5.010000e-01	4.572363e+00	2.548064e+00
5.040000e-01	4.617680e+00	2.494802e+00
5.070000e-01	4.654656e+00	2.436180e+00
5.100000e-01	4.682436e+00	2.374364e+00
5.130000e-01	4.700857e+00	2.311550e+00
5.160000e-01	4.710358e+00	2.249743e+00
5.190000e-01	4.711826e+00	2.190595e+00
5.220000e-01	4.706423e+00	2.135340e+00
5.250000e-01	4.695420e+00	2.084792e+00
5.280000e-01	4.680075e+00	2.039394e+00
5.310000e-01	4.661551e+00	1.999291e+00
5.340000e-01	4.640868e+00	1.964411e+00
5.370000e-01	4.618890e+00	1.934526e+00
5.400000e-01	4.596323e+00	1.909318e+00
5.430000e-01	4.573735e+00	1.888415e+00
5.460000e-01	4.551566e+00	1.871430e+00
5.490000e-01	4.530155e+00	1.857974e+00
5.520000e-01	4.509755e+00	1.847674e+00
5.550000e-01	4.490552e+00	1.840183e+00
5.580000e-01	4.472676e+00	1.835175e+00
5.610000e-01	4.456215e+00	1.832356e+00
5.640000e-01	4.441225e+00	1.831456e+00
5.670000e-01	4.427738e+00	1.832233e+00
5.700000e-01	4.415763e+00	1.834467e+00
5.730000e-01	4.405296e+00	1.837958e+00
5.760000e-01	4.396324e+00	1.842529e+00
5.790000e-01	4.388822e+00	1.848016e+00
5.820000e-01	4.382759e+00	1.854272e+00
5.850000e-01	4.378101e+00	1.861163e+00
5.880000e-01	4.374807e+00	1.868568e+00
5.910000e-01	4.372834e+00	1.876373e+00
5.940000e-01	4.372136e+00	1.884476e+00
5.970000e-01	4.372664e+00	1.892785e+00
6.000000e-01	4.374367e+00	1.901212e+00
6.030000e-01	4.377190e+00	1.909679e+00
6.060000e-01	4.381076e+00	1.918114e+00
6.090000e-01	4.385967e+00	1.926454e+00
6.120000e-01	4.391800e+00	1.934640e+00
6.150000e-01	4.398510e+00	1.942622e+00
6.180000e-01	4.406030e+00	1.950360e+00
6.210000e-01	4.414291e+00	1.957819e+00
6.240000e-01	4.423221e+00	1.964976e+00
6.270000e-01	4.432748e+00	1.971817e+00
6.300000e-01	4.442800e+00	1.978340e+00
6.330000e-01	4.453304e+00	1.984555e+00
6.360000e-01	4.464194e+00	1.990487e+00
6.390000e-01	4.475408e+00	1.996172e+00
6.420000e-01	4.486891e+00	2.001664e+00
6.450000e-01	4.498603e+00	2.007028e+00
6.480000e-01	4.510514e+00	2.012343e+00
6.510000e-01	4.522617e+00	2.017703e+00
6.540000e-01	4.534929e+00	2.023214e+00
6.570000e-01	4.547498e+00	2.028983e+00
6.600000e-01	4.560403e+00	2.035121e+00
6.630000e-01	4.573761e+00	2.041730e+00
6.660000e-01	4.587729e+00	2.048897e+00
6.690000e-01	4.602501e+00	2.056683e+00
6.720000e-01	4.618313e+00	2.065117e+00
6.750000e-01	4.635438e+00	2.074180e+00
6.780000e-01	4.654185e+00	2.083798e+00
6.810000e-01	4.674905e+00	2.093829e+00
6.840000e-01	4.698018e+00	2.104041e+00
6.870000e-01	4.724165e+00	2.114045e+00
6.900000e-01	4.753807e+00	2.122145e+00
6.930000e-01	4.785504e+00	2.127579e+00
6.960000e-01	4.818676e+00	2.130432e+00
6.990000e-01	4.852954e+00	2.130700e+00
7.020000e-01	4.888026e+00	2.128359e+00
7.050000e-01	4.923608e+00	2.123386e+00
7.080000e-01	4.959423e+00	2.115769e+00
7.110000e-01	4.995197e+00	2.105509e+00
7.140000e-01	5.030661e+00	2.092630e+00
7.170000e-01	5.065547e+00	2.077177e+00
7.200000e-01	5.099589e+00	2.059224e+00
7.230000e-01	5.132533e+00	2.038869e+00
7.260000e-01	5.164131e+00	2.016241e+00
7.290000e-01	5.194153e+00	1.991495e+00
7.320000e-01	5.222385e+00	1.964815e+00
7.350000e-01	5.248638e+00	1.936408e+00
7.380000e-01	5.272750e+00	1.906504e+00
7.410000e-01	5.294586e+00	1.875350e+00
7.440000e-01	5.314047e+00	1.843209e+00
7.470000e-01	5.331067e+00	1.810351e+00
7.500000e-01	5.345616e+00	1.777050e+00
7.530000e-01	5.357699e+00	1.743578e+00
7.560000e-01	5.367355e+00	1.710202e+00
7.590000e-01	5.374657e+00	1.677174e+00
7.620000e-01	5.379709e+00	1.644734e+00
7.650000e-01	5.382638e+00	1.613091e+00
7.680000e-01	5.383590e+00	1.582442e+00
7.710000e-01	5.382731e+00	1.552958e+00
7.740000e-01	5.380244e+00	1.524784e+00
7.770000e-01	5.376322e+00	1.498037e+00
7.800000e-01	5.371164e+00	1.472808e+00
7.830000e-01	5.364970e+00	1.449160e+00
7.860000e-01	5.357942e+00	1.427129e+00
7.890000e-01	5.350275e+00	1.406731e+00
7.920000e-01	5.342158e+00	1.387956e+00
7.950000e-01	5.333771e+00	1.370774e+00
7.980000e-01	5.325281e+00	1.355138e+00
8.010000e-01	5.316844e+00	1.340985e+00
8.040000e-01	5.308602e+00	1.328237e+00
8.070000e-01	5.300683e+00	1.316805e+00
8.100000e-01	5.293197e+00	1.306593e+00
8.130000e-01	5.286242e+00	1.297495e+00
8.160000e-01	5.279900e+00	1.289402e+00
8.190000e-01	5.274237e+00	1.282200e+00
8.220000e-01	5.269306e+00	1.275776e+00
8.250000e-01	5.265144e+00	1.270013e+00
8.280000e-01	5.261777e+00	1.264800e+00
8.310000e-01	5.259218e+00	1.260026e+00
8.340000e-01	5.257467e+00	1.255584e+00
8.370000e-01	5.256516e+00	1.251372e+00
8.400000e-01	5.256344e+00	1.247294e+00
8.430000e-01	5.256924e+00	1.243262e+00
8.460000e-01	5.258221e+00	1.239191e+00
8.490000e-01	5.260193e+00	1.235008e+00
8.520000e-01	5.262794e+00	1.230643e+00
8.550000e-01	5.265971e+00	1.226038e+00
8.580000e-01	5.269672e+00	1.221141e+00
8.610000e-01	5.273838e+00	1.215909e+00
8.640000e-01	5.278412e+00	1.210306e+00
8.670000e-01	5.283338e+00	1.204304e+00
8.700000e-01	5.288557e+00	1.197882e+00
8.730000e-01	5.294016e+00	1.191026e+00
8.760000e-01	5.299663e+00	1.183731e+00
8.790000e-01	5.305454e+00	1.175994e+00
8.820000e-01	5.311348e+00	1.167819e+00
8.850000e-01	5.317322e+00	1.159213e+00
8.880000e-01	5.323376e+00	1.150183e+00
8.910000e-01	5.329579e+00	1.140628e+00
8.940000e-01	5.335733e+00	1.130392e+00
8.970000e-01	5.341680e+00	1.119543e+00
9.000000e-01	5.347337e+00	1.108143e+00
9.030000e-01	5.352642e+00	1.096254e+00
9.060000e-01	5.357548e+00	1.083932e+00
9.090000e-01	5.362018e+00	1.071234e+00
9.120000e-01	5.366022e+00	1.058214e+00
9.150000e-01	5.369539e+00	1.044924e+00
9.180000e-01	5.372553e+00	1.031417e+00
9.210000e-01	5.375052e+00	1.017740e+00
9.240000e-01	5.377030e+00	1.003942e+00
9.270000e-01	5.378485e+00	9.900688e-01
9.300000e-01	5.379418e+00	9.761623e-01
9.330000e-01	5.379834e+00	9.622642e-01
9.360000e-01	5.379740e+00	9.484133e-01
9.390000e-01	5.379146e+00	9.346464e-01
9.420000e-01	5.378063e+00	9.209978e-01
9.450000e-01	5.376506e+00	9.074997e-01
9.480000e-01	5.374490e+00	8.941821e-01
9.510000e-01	5.372032e+00	8.810729e-01
9.540000e-01	5.369149e+00	8.681977e-01
9.570000e-01	5.365861e+00	8.555803e-01
9.600000e-01	5.362187e+00	8.432424e-01
9.630000e-01	5.358147e+00	8.312041e-01
9.660000e-01	5.353762e+00	8.194833e-01
9.690000e-01	5.349052e+00	8.080967e-01
9.720000e-01	5.344039e+00	7.970591e-01
9.750000e-01	5.338744e+00	7.863839e-01
9.780000e-01	5.333188e+00	7.760833e-01
9.810000e-01	5.327392e+00	7.661681e-01
9.840000e-01	5.321378e+00	7.566478e-01
9.870000e-01	5.315166e+00	7.475310e-01
9.900000e-01	5.308777e+00	7.388253e-01
9.930000e-01	5.302232e+00	7.305373e-01
9.960000e-01	5.295552e+00	7.226728e-01
9.990000e-01	5.288756e+00	7.152368e-01
1.005000e+00	5.274902e+00	7.016670e-01
1.012500e+00	5.257298e+00	6.871789e-01
1.020000e+00	5.239670e+00	6.754700e-01
1.027500e+00	5.222336e+00	6.665539e-01
1.035000e+00	5.205621e+00	6.604248e-01
1.042500e+00	5.189865e+00	6.570542e-01
1.050000e+00	5.175424e+00	6.563860e-01
1.057500e+00	5.162676e+00	6.583275e-01
1.065000e+00	5.152019e+00	6.627376e-01
1.072500e+00	5.143865e+00	6.694125e-01
1.080000e+00	5.138632e+00	6.780708e-01
1.087500e+00	5.136719e+00	6.883409e-01
1.095000e+00	5.138479e+00	6.997568e-01
1.102500e+00	5.144173e+00	7.117702e-01
1.110000e+00	5.153939e+00	7.237902e-01
1.117500e+00	5.167762e+00	7.352602e-01
1.125000e+00	5.185513e+00	7.457754e-01
1.132500e+00	5.207076e+00	7.552220e-01
1.140000e+00	5.232672e+00	7.638679e-01
1.147500e+00	5.263424e+00	7.722227e-01
1.155000e+00	5.302111e+00	7.802632e-01
1.162500e+00	5.353486e+00	7.853631e-01
1.170000e+00	5.421993e+00	7.788646e-01
1.177500e+00	5.503935e+00	7.453448e-01
1.185000e+00	5.579640e+00	6.737822e-01
1.192500e+00	5.624443e+00	5.743335e-01
1.200000e+00	5.631478e+00	4.717030e-01
1.207500e+00	5.611718e+00	3.830187e-01
1.215000e+00	5.578605e+00	3.122039e-01
1.222500e+00	5.540690e+00	2.567259e-01
1.230000e+00	5.502122e+00	2.129107e-01
1.237500e+00	5.464636e+00	1.777392e-01
1.245000e+00	5.428866e+00	1.490491e-01
1.252500e+00	5.394979e+00	1.253374e-01
1.260000e+00	5.362963e+00	1.055463e-01
1.267500e+00	5.332740e+00	8.891083e-02
1.275000e+00	5.304208e+00	7.486064e-02
1.282500e+00	5.277266e+00	6.295799e-02
1.290000e+00	5.251820e+00	5.285890e-02
1.297500e+00	5.227786e+00	4.428783e-02
1.305000e+00	5.205116e+00	3.701351e-02
1.312500e+00	5.183731e+00	3.074135e-02
1.320000e+00	5.163457e+00	2.531254e-02
1.327500e+00	5.144192e+00	2.063115e-02
1.335000e+00	5.125859e+00	1.661295e-02
1.342500e+00	5.108397e+00	1.318415e-02
1.350000e+00	5.091749e+00	1.028021e-02
1.357500e+00	5.075870e+00	7.844686e-03
1.365000e+00	5.060718e+00	5.828201e-03
1.372500e+00	5.046255e+00	4.187501e-03
1.380000e+00	5.032450e+00	2.884649e-03
1.387500e+00	5.019275e+00	1.886321e-03
1.395000e+00	5.006711e+00	1.163183e-03
1.402500e+00	4.994747e+00	6.893606e-04
1.410000e+00	4.983409e+00	4.234627e-04
1.417500e+00	4.972658e+00	2.478132e-04
1.425000e+00	4.962412e+00	1.427039e-04
1.432500e+00	4.952642e+00	1.037486e-04
1.440000e+00	4.943327e+00	8.614423e-05
1.447500e+00	4.934406e+00	7.024166e-05
1.455000e+00	4.925840e+00	5.602028e-05
1.462500e+00	4.917599e+00	4.345900e-05
1.470000e+00	4.909658e+00	3.253645e-05
1.477500e+00	4.901997e+00	2.323115e-05
1.485000e+00	4.894598e+00	1.552154e-05
1.492500e+00	4.887443e+00	9.386127e-06
1.500000e+00	4.880519e+00	4.803482e-06
1.507500e+00	4.873813e+00	1.752307e-06
1.515000e+00	4.867312e+00	2.114661e-07
1.522500e+00	4.861007e+00	0
1.530000e+00	4.854887e+00	0
1.537500e+00	4.848942e+00	0
1.545000e+00	4.843165e+00	0
1.552500e+00	4.837547e+00	0
1.560000e+00	4.832081e+00	0
1.567500e+00	4.826759e+00	0
1.575000e+00	4.821575e+00	0
1.582500e+00	4.816524e+00	0
1.590000e+00	4.811600e+00	0
1.597500e+00	4.806798e+00	0
1.605000e+00	4.802112e+00	0
1.612500e+00	4.797539e+00	0
1.620000e+00	4.793074e+00	0
1.627500e+00	4.788712e+00	0
1.635000e+00	4.784451e+00	0
1.642500e+00	4.780285e+00	0
1.650000e+00	4.776213e+00	0
1.657500e+00	4.772231e+00	0
1.665000e+00	4.768335e+00	0
1.672500e+00	4.764522e+00	0
1.680000e+00	4.760790e+00	0
1.687500e+00	4.757137e+00	0
