Material: main / Be / Svechnikov
Optical constants. M. Svechnikov, N. Chkhalo, A. Lopatin, R. Pleshkov, V. Polkovnikov, N. Salashchenko, F. Schäfers, M.G. Sertsu, A. Sokolov, N. Tsybin. Optical constants of sputtered beryllium thin films determined from photoabsorption measurements in the spectral range 20.4–250 eV, J. Synchrotron Rad. 27, 75-82 (2020)
Comments: Optical constants are derived from the initial data that include measurements of the transmittance of two free-standing Be films with thicknesses of 70 nm and 152 nm, as well as reflectometric measurements of similar films on a substrate.
Specs: {"n_absolute": true, "wavelength_vacuum": true}
wavelength (um)	n	k
4.95937E-03	9.94295E-01	2.12364E-03
4.97130E-03	9.94249E-01	2.13795E-03
4.98329E-03	9.94202E-01	2.15684E-03
4.99533E-03	9.94167E-01	2.17543E-03
5.00744E-03	9.94164E-01	2.19366E-03
5.01960E-03	9.94161E-01	2.21066E-03
5.03183E-03	9.94147E-01	2.22731E-03
5.04411E-03	9.94125E-01	2.24299E-03
5.05645E-03	9.94112E-01	2.25962E-03
5.06885E-03	9.94083E-01	2.27823E-03
5.08132E-03	9.94043E-01	2.29632E-03
5.09385E-03	9.93999E-01	2.31407E-03
5.10643E-03	9.93954E-01	2.33132E-03
5.11908E-03	9.93922E-01	2.34856E-03
5.13180E-03	9.93920E-01	2.36539E-03
5.14457E-03	9.93906E-01	2.38273E-03
5.15741E-03	9.93875E-01	2.40069E-03
5.17032E-03	9.93834E-01	2.41920E-03
5.18329E-03	9.93812E-01	2.43804E-03
5.19632E-03	9.93769E-01	2.45864E-03
5.20942E-03	9.93719E-01	2.48036E-03
5.22259E-03	9.93672E-01	2.50483E-03
5.23582E-03	9.93646E-01	2.53030E-03
5.24912E-03	9.93631E-01	2.55670E-03
5.26249E-03	9.93601E-01	2.58507E-03
5.27592E-03	9.93561E-01	2.61405E-03
5.28943E-03	9.93531E-01	2.64222E-03
5.30300E-03	9.93499E-01	2.67093E-03
5.31665E-03	9.93456E-01	2.70031E-03
5.33036E-03	9.93433E-01	2.73004E-03
5.34415E-03	9.93414E-01	2.76013E-03
5.35800E-03	9.93381E-01	2.78812E-03
5.37193E-03	9.93337E-01	2.81695E-03
5.38593E-03	9.93309E-01	2.84847E-03
5.40001E-03	9.93289E-01	2.87735E-03
5.41416E-03	9.93266E-01	2.90345E-03
5.42838E-03	9.93226E-01	2.93418E-03
5.44268E-03	9.93184E-01	2.96657E-03
5.45705E-03	9.93162E-01	2.99916E-03
5.47150E-03	9.93136E-01	3.03306E-03
5.48603E-03	9.93104E-01	3.06917E-03
5.50063E-03	9.93075E-01	3.10301E-03
5.51531E-03	9.93054E-01	3.13555E-03
5.53007E-03	9.93016E-01	3.17070E-03
5.54491E-03	9.92985E-01	3.20595E-03
5.55983E-03	9.92970E-01	3.23827E-03
5.57483E-03	9.92950E-01	3.27153E-03
5.58991E-03	9.92912E-01	3.30587E-03
5.60507E-03	9.92876E-01	3.33945E-03
5.62032E-03	9.92866E-01	3.37303E-03
5.63565E-03	9.92869E-01	3.40380E-03
5.65106E-03	9.92807E-01	3.43481E-03
5.66655E-03	9.92771E-01	3.46773E-03
5.68214E-03	9.92746E-01	3.50011E-03
5.69780E-03	9.92731E-01	3.53499E-03
5.71356E-03	9.92711E-01	3.57038E-03
5.72940E-03	9.92671E-01	3.60436E-03
5.74533E-03	9.92631E-01	3.63268E-03
5.76135E-03	9.92617E-01	3.66090E-03
5.77746E-03	9.92567E-01	3.69539E-03
5.79365E-03	9.92538E-01	3.73111E-03
5.80994E-03	9.92519E-01	3.76848E-03
5.82632E-03	9.92476E-01	3.80676E-03
5.84280E-03	9.92437E-01	3.84622E-03
5.85937E-03	9.92423E-01	3.88620E-03
5.87603E-03	9.92383E-01	3.92755E-03
5.89278E-03	9.92356E-01	3.97055E-03
5.90964E-03	9.92349E-01	4.01104E-03
5.92659E-03	9.92306E-01	4.05119E-03
5.94363E-03	9.92281E-01	4.09120E-03
5.96078E-03	9.92263E-01	4.13167E-03
5.97802E-03	9.92235E-01	4.17257E-03
5.99537E-03	9.92217E-01	4.20893E-03
6.01281E-03	9.92191E-01	4.24404E-03
6.03036E-03	9.92170E-01	4.27680E-03
6.04801E-03	9.92145E-01	4.30805E-03
6.06576E-03	9.92118E-01	4.33742E-03
6.08362E-03	9.92084E-01	4.36834E-03
6.10158E-03	9.92056E-01	4.40012E-03
6.11965E-03	9.92032E-01	4.43360E-03
6.13783E-03	9.91987E-01	4.46826E-03
6.15612E-03	9.91958E-01	4.50429E-03
6.17451E-03	9.91920E-01	4.53780E-03
6.19302E-03	9.91897E-01	4.57120E-03
6.21163E-03	9.91864E-01	4.60672E-03
6.23036E-03	9.91813E-01	4.64151E-03
6.24920E-03	9.91773E-01	4.67535E-03
6.26816E-03	9.91747E-01	4.71045E-03
6.28723E-03	9.91719E-01	4.74574E-03
6.30642E-03	9.91663E-01	4.77839E-03
6.32572E-03	9.91603E-01	4.81397E-03
6.34515E-03	9.91588E-01	4.85299E-03
6.36469E-03	9.91542E-01	4.89073E-03
6.38436E-03	9.91480E-01	4.92937E-03
6.40414E-03	9.91443E-01	4.97448E-03
6.42405E-03	9.91401E-01	5.02038E-03
6.44408E-03	9.91346E-01	5.06717E-03
6.46424E-03	9.91307E-01	5.11551E-03
6.48453E-03	9.91265E-01	5.16432E-03
6.50494E-03	9.91216E-01	5.21041E-03
6.52548E-03	9.91172E-01	5.25911E-03
6.54616E-03	9.91128E-01	5.31084E-03
6.56696E-03	9.91078E-01	5.35994E-03
6.58790E-03	9.91050E-01	5.40913E-03
6.60897E-03	9.90993E-01	5.46075E-03
6.63017E-03	9.90933E-01	5.51114E-03
6.65151E-03	9.90924E-01	5.55992E-03
6.67299E-03	9.90872E-01	5.61007E-03
6.69461E-03	9.90794E-01	5.66062E-03
6.71637E-03	9.90758E-01	5.70837E-03
6.73827E-03	9.90729E-01	5.75703E-03
6.76032E-03	9.90658E-01	5.80665E-03
6.78251E-03	9.90572E-01	5.85637E-03
6.80484E-03	9.90535E-01	5.90753E-03
6.82732E-03	9.90487E-01	5.96581E-03
6.84996E-03	9.90399E-01	6.02659E-03
6.87274E-03	9.90314E-01	6.09033E-03
6.89567E-03	9.90269E-01	6.15846E-03
6.91876E-03	9.90213E-01	6.22986E-03
6.94200E-03	9.90122E-01	6.31041E-03
6.96540E-03	9.90040E-01	6.39389E-03
6.98896E-03	9.90011E-01	6.48070E-03
7.01268E-03	9.89954E-01	6.56677E-03
7.03656E-03	9.89862E-01	6.65411E-03
7.06060E-03	9.89822E-01	6.74288E-03
7.08481E-03	9.89797E-01	6.82781E-03
7.10919E-03	9.89723E-01	6.90691E-03
7.13373E-03	9.89671E-01	6.97678E-03
7.15844E-03	9.89644E-01	7.04373E-03
7.18333E-03	9.89560E-01	7.10354E-03
7.20838E-03	9.89489E-01	7.16300E-03
7.23362E-03	9.89405E-01	7.22169E-03
7.25903E-03	9.89294E-01	7.29010E-03
7.28462E-03	9.89176E-01	7.36482E-03
7.31039E-03	9.89038E-01	7.46379E-03
7.33634E-03	9.88897E-01	7.57966E-03
7.36248E-03	9.88743E-01	7.71924E-03
7.38881E-03	9.88578E-01	7.89390E-03
7.41532E-03	9.88434E-01	8.09125E-03
7.44203E-03	9.88289E-01	8.33613E-03
7.46893E-03	9.88167E-01	8.60597E-03
7.49602E-03	9.88089E-01	8.90829E-03
7.52331E-03	9.88083E-01	9.23014E-03
7.55080E-03	9.88073E-01	9.57512E-03
7.57850E-03	9.88132E-01	9.87877E-03
7.60639E-03	9.88240E-01	1.01816E-02
7.63449E-03	9.88369E-01	1.04648E-02
7.66281E-03	9.88557E-01	1.07034E-02
7.69133E-03	9.88762E-01	1.09258E-02
7.72006E-03	9.88968E-01	1.10668E-02
7.74901E-03	9.89191E-01	1.11804E-02
7.77818E-03	9.89381E-01	1.12482E-02
7.80757E-03	9.89569E-01	1.12694E-02
7.83718E-03	9.89719E-01	1.12565E-02
7.86702E-03	9.89835E-01	1.12485E-02
7.89708E-03	9.89938E-01	1.11968E-02
7.92738E-03	9.90041E-01	1.11779E-02
7.95791E-03	9.90012E-01	1.11132E-02
7.98867E-03	9.90014E-01	1.11265E-02
8.01968E-03	9.89991E-01	1.11084E-02
8.05092E-03	9.89985E-01	1.11299E-02
8.08241E-03	9.89940E-01	1.11595E-02
8.11415E-03	9.89900E-01	1.12017E-02
8.14614E-03	9.89872E-01	1.12755E-02
8.17838E-03	9.89853E-01	1.13372E-02
8.21087E-03	9.89855E-01	1.14017E-02
8.24363E-03	9.89870E-01	1.14509E-02
8.27665E-03	9.89853E-01	1.14777E-02
8.30993E-03	9.89837E-01	1.15075E-02
8.34349E-03	9.89782E-01	1.15080E-02
8.37731E-03	9.89744E-01	1.15428E-02
8.41141E-03	9.89616E-01	1.15922E-02
8.44579E-03	9.89535E-01	1.16685E-02
8.48045E-03	9.89451E-01	1.17365E-02
8.51540E-03	9.89353E-01	1.18360E-02
8.55063E-03	9.89266E-01	1.19451E-02
8.58616E-03	9.89196E-01	1.20555E-02
8.62199E-03	9.89115E-01	1.21742E-02
8.65811E-03	9.89044E-01	1.22801E-02
8.69454E-03	9.88955E-01	1.24054E-02
8.73128E-03	9.88907E-01	1.25332E-02
8.76833E-03	9.88865E-01	1.26277E-02
8.80570E-03	9.88788E-01	1.26981E-02
8.84338E-03	9.88677E-01	1.27700E-02
8.88139E-03	9.88523E-01	1.28349E-02
8.91973E-03	9.88328E-01	1.29280E-02
8.95840E-03	9.88102E-01	1.30848E-02
8.99740E-03	9.87881E-01	1.32891E-02
9.03675E-03	9.87694E-01	1.35389E-02
9.07644E-03	9.87551E-01	1.38124E-02
9.11648E-03	9.87459E-01	1.40589E-02
9.15688E-03	9.87416E-01	1.42100E-02
9.19764E-03	9.87293E-01	1.42435E-02
9.23876E-03	9.87009E-01	1.41843E-02
9.28025E-03	9.86513E-01	1.41252E-02
9.32212E-03	9.85731E-01	1.41556E-02
9.36437E-03	9.84663E-01	1.44299E-02
9.40699E-03	9.83464E-01	1.51960E-02
9.45001E-03	9.82358E-01	1.64455E-02
9.49343E-03	9.81520E-01	1.80525E-02
9.53725E-03	9.80935E-01	1.99192E-02
9.58147E-03	9.80643E-01	2.21199E-02
9.62610E-03	9.80915E-01	2.46141E-02
9.67115E-03	9.81933E-01	2.71872E-02
9.71663E-03	9.83659E-01	2.94343E-02
9.76253E-03	9.85841E-01	3.10541E-02
9.80888E-03	9.88211E-01	3.21392E-02
9.85566E-03	9.90689E-01	3.26589E-02
9.90289E-03	9.93005E-01	3.24617E-02
9.95058E-03	9.94665E-01	3.17667E-02
9.99873E-03	9.95694E-01	3.13335E-02
1.00473E-02	9.96583E-01	3.13487E-02
1.00964E-02	9.97690E-01	3.16697E-02
1.01460E-02	9.99348E-01	3.19581E-02
1.01961E-02	1.00128E+00	3.17301E-02
1.02466E-02	1.00300E+00	3.09494E-02
1.02977E-02	1.00423E+00	2.99822E-02
1.03493E-02	1.00495E+00	2.91799E-02
1.04014E-02	1.00545E+00	2.94609E-02
1.04540E-02	1.00776E+00	3.01202E-02
1.05071E-02	1.01162E+00	2.92764E-02
1.05608E-02	1.01354E+00	2.46868E-02
1.06151E-02	1.01236E+00	2.23337E-02
1.06699E-02	1.01186E+00	2.16219E-02
1.07253E-02	1.01223E+00	2.05891E-02
1.07812E-02	1.01161E+00	1.97262E-02
1.08378E-02	1.01075E+00	2.07801E-02
1.08949E-02	1.01289E+00	2.46907E-02
1.09527E-02	1.02536E+00	2.41916E-02
1.10110E-02	1.02484E+00	1.13780E-02
1.10700E-02	1.02507E+00	5.77439E-03
1.11296E-02	1.01709E+00	1.20390E-03
1.11899E-02	1.01336E+00	1.02345E-03
1.12508E-02	1.01094E+00	1.00590E-03
1.13124E-02	1.00912E+00	1.02319E-03
1.13747E-02	1.00764E+00	1.03718E-03
1.14377E-02	1.00640E+00	1.05302E-03
1.15013E-02	1.00532E+00	1.07194E-03
1.15657E-02	1.00435E+00	1.08428E-03
1.16308E-02	1.00348E+00	1.10697E-03
1.16966E-02	1.00269E+00	1.12428E-03
1.17632E-02	1.00195E+00	1.14579E-03
1.18306E-02	1.00127E+00	1.16764E-03
1.18987E-02	1.00063E+00	1.19832E-03
1.19676E-02	1.00002E+00	1.22163E-03
1.20373E-02	9.99456E-01	1.23760E-03
1.21078E-02	9.98906E-01	1.25507E-03
1.21792E-02	9.98396E-01	1.27121E-03
1.22514E-02	9.97895E-01	1.30181E-03
1.23245E-02	9.97444E-01	1.31379E-03
1.23984E-02	9.96948E-01	1.32611E-03
1.24733E-02	9.96486E-01	1.34700E-03
1.25490E-02	9.96042E-01	1.35779E-03
1.26257E-02	9.95610E-01	1.38129E-03
1.27033E-02	9.95173E-01	1.39798E-03
1.27819E-02	9.94761E-01	1.41853E-03
1.28614E-02	9.94330E-01	1.43655E-03
1.29420E-02	9.93928E-01	1.44806E-03
1.30235E-02	9.93520E-01	1.47195E-03
1.31062E-02	9.93118E-01	1.48923E-03
1.31898E-02	9.92734E-01	1.52170E-03
1.32745E-02	9.92337E-01	1.52962E-03
1.33604E-02	9.91954E-01	1.54665E-03
1.34473E-02	9.91567E-01	1.55471E-03
1.35354E-02	9.91159E-01	1.58691E-03
1.36246E-02	9.90773E-01	1.60908E-03
1.37151E-02	9.90392E-01	1.61571E-03
1.38067E-02	9.89999E-01	1.65229E-03
1.38996E-02	9.89597E-01	1.66993E-03
1.39937E-02	9.89212E-01	1.69787E-03
1.40891E-02	9.88845E-01	1.71605E-03
1.41858E-02	9.88442E-01	1.74269E-03
1.42839E-02	9.88052E-01	1.77260E-03
1.43833E-02	9.87649E-01	1.79463E-03
1.44841E-02	9.87250E-01	1.81844E-03
1.45864E-02	9.86827E-01	1.82865E-03
1.46901E-02	9.86442E-01	1.84746E-03
1.47952E-02	9.86013E-01	1.86039E-03
1.49019E-02	9.85591E-01	1.88844E-03
1.50102E-02	9.85164E-01	1.91144E-03
1.51200E-02	9.84697E-01	1.93565E-03
1.52315E-02	9.84304E-01	1.95653E-03
1.53446E-02	9.83869E-01	1.98035E-03
1.54594E-02	9.83425E-01	2.00698E-03
1.55759E-02	9.82979E-01	2.03671E-03
1.56942E-02	9.82506E-01	2.04369E-03
1.58143E-02	9.82050E-01	2.07094E-03
1.59363E-02	9.81549E-01	2.11144E-03
1.60601E-02	9.81092E-01	2.11764E-03
1.61859E-02	9.80593E-01	2.13365E-03
1.63137E-02	9.80090E-01	2.16721E-03
1.64435E-02	9.79566E-01	2.17621E-03
1.65754E-02	9.79008E-01	2.22099E-03
1.67095E-02	9.78479E-01	2.24611E-03
1.68457E-02	9.77938E-01	2.27322E-03
1.69841E-02	9.77386E-01	2.31829E-03
1.71249E-02	9.76735E-01	2.36008E-03
1.72680E-02	9.76220E-01	2.40351E-03
1.74135E-02	9.75588E-01	2.43457E-03
1.75615E-02	9.75015E-01	2.46762E-03
1.77120E-02	9.74390E-01	2.51239E-03
1.78652E-02	9.73743E-01	2.55801E-03
1.80210E-02	9.73112E-01	2.60577E-03
1.81795E-02	9.72432E-01	2.64606E-03
1.83409E-02	9.71774E-01	2.68720E-03
1.85051E-02	9.71062E-01	2.72695E-03
1.86723E-02	9.70308E-01	2.76477E-03
1.88426E-02	9.69560E-01	2.82799E-03
1.90160E-02	9.68796E-01	2.92462E-03
1.91926E-02	9.68121E-01	2.96339E-03
1.93725E-02	9.67271E-01	3.00170E-03
1.95559E-02	9.66432E-01	3.04569E-03
1.97427E-02	9.65562E-01	3.10206E-03
1.99332E-02	9.64691E-01	3.18691E-03
2.01273E-02	9.63787E-01	3.25013E-03
2.03253E-02	9.62854E-01	3.33548E-03
2.05272E-02	9.61896E-01	3.41201E-03
2.07331E-02	9.60893E-01	3.49387E-03
2.09433E-02	9.59876E-01	3.60588E-03
2.11577E-02	9.58795E-01	3.73053E-03
2.13766E-02	9.57735E-01	3.89238E-03
2.16000E-02	9.56642E-01	4.06310E-03
2.18282E-02	9.55547E-01	4.21468E-03
2.20612E-02	9.54442E-01	4.34583E-03
2.22993E-02	9.53269E-01	4.49819E-03
2.25426E-02	9.52094E-01	4.64945E-03
2.27912E-02	9.50853E-01	4.77977E-03
2.30454E-02	9.49614E-01	4.92309E-03
2.33053E-02	9.48344E-01	5.04380E-03
2.35711E-02	9.47000E-01	5.10771E-03
2.38431E-02	9.45554E-01	5.16751E-03
2.41214E-02	9.44039E-01	5.24929E-03
2.44063E-02	9.42438E-01	5.35760E-03
2.46980E-02	9.40791E-01	5.47350E-03
2.49968E-02	9.39090E-01	5.62241E-03
2.53029E-02	9.37315E-01	5.75594E-03
2.56166E-02	9.35453E-01	5.92106E-03
2.59381E-02	9.33513E-01	6.10294E-03
2.62678E-02	9.31509E-01	6.33023E-03
2.66061E-02	9.29452E-01	6.56434E-03
2.69531E-02	9.27319E-01	6.78685E-03
2.73093E-02	9.25182E-01	6.96170E-03
2.76750E-02	9.22814E-01	7.13209E-03
2.80507E-02	9.20267E-01	7.26836E-03
2.84367E-02	9.17625E-01	7.51555E-03
2.88335E-02	9.14836E-01	7.85372E-03
2.92416E-02	9.11990E-01	8.20230E-03
2.96613E-02	9.09025E-01	8.52659E-03
3.00933E-02	9.05849E-01	8.90282E-03
3.05380E-02	9.02532E-01	9.37971E-03
3.09960E-02	8.99085E-01	9.86156E-03
3.14681E-02	8.95520E-01	1.04414E-02
3.19547E-02	8.91949E-01	1.09492E-02
3.24566E-02	8.88015E-01	1.13995E-02
3.29745E-02	8.83849E-01	1.17743E-02
3.35092E-02	8.79265E-01	1.22144E-02
3.40616E-02	8.74331E-01	1.27994E-02
3.46325E-02	8.69083E-01	1.35491E-02
3.52228E-02	8.63634E-01	1.45395E-02
3.58336E-02	8.57820E-01	1.55307E-02
3.64659E-02	8.51491E-01	1.67782E-02
3.71210E-02	8.44900E-01	1.83475E-02
3.78001E-02	8.38204E-01	2.02577E-02
3.85044E-02	8.31319E-01	2.22476E-02
3.92355E-02	8.24242E-01	2.40835E-02
3.99949E-02	8.16402E-01	2.58662E-02
4.07843E-02	8.07767E-01	2.78683E-02
4.16054E-02	7.98587E-01	3.04094E-02
4.24603E-02	7.88961E-01	3.29733E-02
4.33511E-02	7.78461E-01	3.58133E-02
4.42801E-02	7.66846E-01	3.89343E-02
4.52497E-02	7.54077E-01	4.29937E-02
4.62628E-02	7.40535E-01	4.80808E-02
4.73222E-02	7.26846E-01	5.42093E-02
4.84313E-02	7.12246E-01	6.03676E-02
4.95937E-02	6.96291E-01	6.69521E-02
5.08132E-02	6.78929E-01	7.44468E-02
5.20942E-02	6.59800E-01	8.29876E-02
5.34415E-02	6.38622E-01	9.37095E-02
5.48603E-02	6.16322E-01	1.05667E-01
5.63565E-02	5.90833E-01	1.18810E-01
5.79365E-02	5.64517E-01	1.37263E-01
5.96078E-02	5.28756E-01	1.50550E-01
