Material: hikari / i-line / 5165
Optical constants. NIKON Zemax catalog 2017-11 (obtained from http://www.nikon.com)See also NIKON i-line glass data sheet
Specs: {"n_absolute": false, "wavelength_vacuum": false, "temperature": "22.5 °C", "thermal_dispersion": [{"type": "Schott formula", "coefficients": "3.48e-06 1.89e-08 2.59e-13 3.58e-07 4.09e-10 0.212"}], "nd": 1.511829, "Vd": 64.95711, "density": "2.44 g/cm3", "thermal_expansion": [{"temperature_range": "-30 70 °C", "coefficient": "5.8e-06 K-1"}], "dPgF": -0.0044, "climatic_resistance": 1.0, "acid_resistance": 4.0, "alkali_resistance": 1.0}
Dispersion formula 2, range 0.32611 2.32542 um, coefficients 0 1.12790724 0.00673602593 0.129745283 0.0228274219 0.994872985 94.2587142
wavelength (um)	k
0.290	7.4283E-06
0.300	3.6147E-06
0.310	1.4304E-06
0.320	5.0535E-07
0.330	1.7649E-07
0.340	6.5727E-08
0.350	2.5180E-08
0.360	1.4360E-08
0.365	1.1642E-08
0.370	5.8946E-09
0.380	3.0255E-09
0.390	3.1051E-09
0.400	3.1847E-09
0.420	3.3439E-09
0.440	3.5032E-09
0.460	3.6624E-09
0.480	3.8216E-09
0.500	3.9809E-09
0.550	4.3790E-09
0.600	4.7770E-09
0.650	5.1751E-09
0.700	5.5732E-09
0.800	6.3694E-09
0.900	7.1656E-09
1.000	7.9617E-09
1.200	9.5541E-09
1.400	2.7064E-07
1.600	7.6624E-08
1.800	1.8743E-07
2.000	5.0119E-07
2.200	2.6405E-06
2.400	5.2414E-06
