Material: inorganic / PtS2 / Ermolaev
Optical constants. G. A. Ermolaev, K. V. Voronin, M. K. Tatmyshevskiy, A. B. Mazitov, A. S. Slavich, D. I. Yakubovsky, A. P. Tselin, M. S. Mironov, R. I. Romanov, A. M. Markeev, I. A. Kruglov, S. M. Novikov, A. A. Vyshnevyy, A. V. Arsenin, V. S. Volkov. Broadband optical properties of atomically thin PtS2 and PtSe2, Nanomaterials 11, 3269 (2021) (Numerical data kindly provided by Georgy Ermolaev)
Comments: 5 nm CVD PtS2.
Specs: {"n_absolute": true, "wavelength_vacuum": true, "film_thickness": "5 nm", "substrate": "sapphire", "deposition_method": "CVD"}
wavelength (um)	n	k
0.245	1.53569	2.54737
0.253	1.79948	2.53492
0.261	2.02900	2.44001
0.269	2.18260	2.29258
0.277	2.24921	2.14367
0.285	2.25081	2.03728
0.293	2.23040	1.99584
0.301	2.24445	2.00505
0.309	2.31140	1.98509
0.317	2.32882	1.90177
0.325	2.26250	1.86094
0.333	2.18436	1.90217
0.341	2.13597	2.00557
0.349	2.13451	2.15347
0.357	2.19871	2.33346
0.365	2.36050	2.51952
0.373	2.64257	2.63286
0.381	2.95367	2.56593
0.389	3.12602	2.38459
0.397	3.17892	2.24624
0.405	3.20929	2.17442
0.413	3.25518	2.13406
0.421	3.31826	2.09893
0.429	3.39085	2.05686
0.437	3.46501	2.00399
0.445	3.53474	1.94074
0.453	3.59621	1.86952
0.461	3.64749	1.79337
0.469	3.68811	1.71525
0.477	3.71859	1.63763
0.485	3.73999	1.56237
0.493	3.75366	1.49075
0.501	3.76096	1.42351
0.509	3.76318	1.36101
0.517	3.76145	1.30334
0.525	3.75675	1.25036
0.533	3.74987	1.20185
0.541	3.74143	1.15751
0.549	3.73196	1.11700
0.557	3.72185	1.07997
0.565	3.71139	1.04611
0.573	3.70083	1.01510
0.581	3.69034	0.98665
0.589	3.68004	0.96050
0.597	3.67003	0.93642
0.605	3.66037	0.91418
0.613	3.65111	0.89360
0.621	3.64227	0.87451
0.629	3.63387	0.85676
0.637	3.62591	0.84020
0.645	3.61839	0.82472
0.653	3.61131	0.81022
0.661	3.60464	0.79660
0.669	3.59839	0.78377
0.677	3.59252	0.77166
0.685	3.58704	0.76020
0.693	3.58191	0.74934
0.701	3.57713	0.73901
0.709	3.57266	0.72917
0.717	3.56851	0.71979
0.725	3.56465	0.71081
0.733	3.56105	0.70221
0.741	3.55772	0.69395
0.749	3.55463	0.68602
0.757	3.55177	0.67837
0.765	3.54913	0.67099
0.773	3.54668	0.66386
0.781	3.54443	0.65697
0.789	3.54235	0.65028
0.797	3.54045	0.64380
0.805	3.53869	0.63750
0.813	3.53709	0.63137
0.821	3.53562	0.62541
0.829	3.53428	0.61959
0.837	3.53305	0.61392
0.845	3.53195	0.60838
0.853	3.53094	0.60296
0.861	3.53004	0.59766
0.869	3.52922	0.59247
0.877	3.52850	0.58739
0.885	3.52785	0.58241
0.893	3.52728	0.57752
0.901	3.52677	0.57272
0.909	3.52634	0.56800
0.917	3.52596	0.56337
0.925	3.52564	0.55881
0.933	3.52537	0.55433
0.941	3.52515	0.54992
0.949	3.52498	0.54557
0.957	3.52485	0.54129
0.965	3.52475	0.53708
0.973	3.52470	0.53292
0.981	3.52467	0.52882
0.989	3.52468	0.52478
0.997	3.52472	0.52079
1.005	3.52479	0.51686
1.013	3.52488	0.51297
1.021	3.52499	0.50913
1.029	3.52512	0.50535
1.037	3.52527	0.50160
1.045	3.52544	0.49791
1.053	3.52563	0.49425
1.061	3.52583	0.49064
1.069	3.52604	0.48707
1.077	3.52626	0.48354
1.085	3.52650	0.48005
1.093	3.52675	0.47660
1.101	3.52700	0.47318
1.109	3.52726	0.46981
1.117	3.52753	0.46646
1.125	3.52781	0.46316
1.133	3.52809	0.45989
1.141	3.52838	0.45665
1.149	3.52867	0.45344
1.157	3.52896	0.45027
1.165	3.52925	0.44713
1.173	3.52955	0.44402
1.181	3.52985	0.44094
1.189	3.53015	0.43789
1.197	3.53045	0.43488
1.205	3.53075	0.43189
1.213	3.53106	0.42893
1.221	3.53136	0.42600
1.229	3.53166	0.42309
1.237	3.53195	0.42021
1.245	3.53225	0.41736
1.253	3.53255	0.41454
1.261	3.53284	0.41175
1.269	3.53313	0.40897
1.277	3.53342	0.40623
1.285	3.53370	0.40351
1.293	3.53399	0.40081
1.301	3.53427	0.39814
1.309	3.53454	0.39550
1.317	3.53482	0.39287
1.325	3.53508	0.39027
1.333	3.53535	0.38770
1.341	3.53561	0.38514
1.349	3.53587	0.38261
1.357	3.53613	0.38010
1.365	3.53638	0.37762
1.373	3.53662	0.37515
1.381	3.53687	0.37271
1.389	3.53710	0.37029
1.397	3.53734	0.36789
1.405	3.53757	0.36550
1.413	3.53779	0.36314
1.421	3.53801	0.36080
1.429	3.53823	0.35848
1.437	3.53844	0.35618
1.445	3.53865	0.35390
1.453	3.53885	0.35164
1.461	3.53905	0.34940
1.469	3.53925	0.34718
1.477	3.53944	0.34497
1.485	3.53962	0.34278
1.493	3.53980	0.34062
1.501	3.53998	0.33847
1.509	3.54015	0.33633
1.517	3.54032	0.33422
1.525	3.54048	0.33212
1.533	3.54064	0.33004
1.541	3.54080	0.32798
1.549	3.54095	0.32593
1.557	3.54109	0.32390
1.565	3.54124	0.32189
1.573	3.54137	0.31989
1.581	3.54151	0.31791
1.589	3.54164	0.31594
1.597	3.54176	0.31400
1.605	3.54188	0.31206
1.613	3.54200	0.31014
1.621	3.54211	0.30824
1.629	3.54222	0.30635
1.637	3.54233	0.30448
1.645	3.54243	0.30262
1.653	3.54253	0.30078
1.661	3.54262	0.29895
1.669	3.54271	0.29714
1.677	3.54280	0.29533
1.685	3.54288	0.29355
1.693	3.54296	0.29178
1.701	3.54303	0.29002
1.709	3.54310	0.28827
1.717	3.54317	0.28654
1.725	3.54324	0.28482
1.733	3.54330	0.28312
1.741	3.54335	0.28143
1.749	3.54341	0.27975
1.757	3.54346	0.27808
1.765	3.54351	0.27643
1.773	3.54355	0.27479
1.781	3.54359	0.27316
1.789	3.54363	0.27154
1.797	3.54366	0.26994
1.805	3.54369	0.26835
1.813	3.54372	0.26677
1.821	3.54375	0.26520
1.829	3.54377	0.26364
1.837	3.54379	0.26210
1.845	3.54381	0.26056
1.853	3.54382	0.25904
1.861	3.54383	0.25753
1.869	3.54384	0.25603
1.877	3.54384	0.25454
1.885	3.54385	0.25306
1.893	3.54385	0.25160
1.901	3.54384	0.25014
1.909	3.54384	0.24869
1.917	3.54383	0.24726
1.925	3.54382	0.24583
1.933	3.54380	0.24442
1.941	3.54379	0.24301
1.949	3.54377	0.24162
1.957	3.54375	0.24024
1.965	3.54373	0.23886
1.973	3.54370	0.23750
1.981	3.54367	0.23614
1.989	3.54364	0.23480
1.997	3.54361	0.23346
2.005	3.54358	0.23214
2.013	3.54354	0.23082
2.021	3.54350	0.22951
2.029	3.54346	0.22821
2.037	3.54342	0.22692
2.045	3.54338	0.22564
2.053	3.54333	0.22437
2.061	3.54328	0.22311
2.069	3.54323	0.22186
2.077	3.54318	0.22061
2.085	3.54312	0.21938
2.093	3.54307	0.21815
2.101	3.54301	0.21693
2.109	3.54295	0.21572
2.117	3.54289	0.21452
2.125	3.54282	0.21332
2.133	3.54276	0.21214
2.141	3.54269	0.21096
2.149	3.54262	0.20979
2.157	3.54255	0.20863
2.165	3.54248	0.20747
2.173	3.54240	0.20632
2.181	3.54233	0.20519
2.189	3.54225	0.20406
2.197	3.54217	0.20293
2.205	3.54209	0.20182
2.213	3.54201	0.20071
2.221	3.54193	0.19961
2.229	3.54185	0.19851
2.237	3.54176	0.19743
2.245	3.54167	0.19635
2.253	3.54159	0.19527
2.261	3.54150	0.19421
2.269	3.54141	0.19315
2.277	3.54131	0.19210
2.285	3.54122	0.19105
2.293	3.54112	0.19002
2.301	3.54103	0.18899
2.309	3.54093	0.18796
2.317	3.54083	0.18694
2.325	3.54073	0.18593
2.333	3.54063	0.18493
2.341	3.54053	0.18393
2.349	3.54043	0.18294
2.357	3.54032	0.18196
2.365	3.54022	0.18098
2.373	3.54011	0.18000
2.381	3.54000	0.17904
2.389	3.53990	0.17808
2.397	3.53979	0.17712
2.405	3.53968	0.17618
2.413	3.53956	0.17523
2.421	3.53945	0.17430
2.429	3.53934	0.17337
2.437	3.53922	0.17244
2.445	3.53911	0.17153
2.453	3.53899	0.17061
2.461	3.53888	0.16971
2.469	3.53876	0.16880
2.477	3.53864	0.16791
2.485	3.53852	0.16702
2.493	3.53840	0.16613
2.501	3.53828	0.16525
2.509	3.53816	0.16438
2.517	3.53803	0.16351
2.525	3.53791	0.16265
2.533	3.53778	0.16179
2.541	3.53766	0.16094
2.549	3.53753	0.16009
2.557	3.53741	0.15925
2.565	3.53728	0.15841
2.573	3.53715	0.15758
2.581	3.53702	0.15675
2.589	3.53689	0.15593
2.597	3.53676	0.15512
2.605	3.53663	0.15430
2.613	3.53650	0.15350
2.621	3.53637	0.15270
2.629	3.53624	0.15190
2.637	3.53610	0.15111
2.645	3.53597	0.15032
2.653	3.53584	0.14953
2.661	3.53570	0.14876
2.669	3.53557	0.14798
2.677	3.53543	0.14721
2.685	3.53529	0.14645
2.693	3.53516	0.14569
2.701	3.53502	0.14493
2.709	3.53488	0.14418
2.717	3.53474	0.14344
2.725	3.53460	0.14269
2.733	3.53446	0.14195
2.741	3.53432	0.14122
2.749	3.53418	0.14049
2.757	3.53404	0.13977
2.765	3.53390	0.13905
2.773	3.53376	0.13833
2.781	3.53362	0.13762
2.789	3.53347	0.13691
2.797	3.53333	0.13620
2.805	3.53319	0.13550
2.813	3.53304	0.13481
2.821	3.53290	0.13411
2.829	3.53275	0.13343
2.837	3.53261	0.13274
2.845	3.53246	0.13206
2.853	3.53232	0.13138
2.861	3.53217	0.13071
2.869	3.53203	0.13004
2.877	3.53188	0.12938
2.885	3.53173	0.12872
2.893	3.53158	0.12806
2.901	3.53144	0.12740
2.909	3.53129	0.12675
2.917	3.53114	0.12611
2.925	3.53099	0.12546
2.933	3.53084	0.12483
2.941	3.53069	0.12419
2.949	3.53054	0.12356
2.957	3.53039	0.12293
2.965	3.53025	0.12230
2.973	3.53009	0.12168
2.981	3.52994	0.12106
2.989	3.52979	0.12045
2.997	3.52964	0.11984
3.005	3.52949	0.11923
3.013	3.52934	0.11862
3.021	3.52919	0.11802
3.029	3.52904	0.11743
3.037	3.52889	0.11683
3.045	3.52873	0.11624
3.053	3.52858	0.11565
3.061	3.52843	0.11507
3.069	3.52828	0.11448
3.077	3.52812	0.11391
3.085	3.52797	0.11333
3.093	3.52782	0.11276
3.101	3.52766	0.11219
3.109	3.52751	0.11162
3.117	3.52736	0.11106
3.125	3.52720	0.11050
3.133	3.52705	0.10994
3.141	3.52689	0.10939
3.149	3.52674	0.10884
3.157	3.52659	0.10829
3.165	3.52643	0.10774
3.173	3.52628	0.10720
3.181	3.52612	0.10666
3.189	3.52597	0.10612
3.197	3.52581	0.10559
3.205	3.52566	0.10506
3.213	3.52550	0.10453
3.221	3.52535	0.10401
3.229	3.52519	0.10348
3.237	3.52504	0.10296
3.245	3.52488	0.10245
3.253	3.52473	0.10193
3.261	3.52457	0.10142
3.269	3.52441	0.10091
3.277	3.52426	0.10041
3.285	3.52410	0.09990
3.293	3.52395	0.09940
