Material: main / C / Querry-DixonHPN2
Optical constants. M. R. Querry. Optical constants, Contractor Report CRDC-CR-85034 (1985)
Comments: Graphite pellet from Dixon HPN-2 powder.
wavelength (um)	n	k
0.2000	0.840	0.723
0.2200	0.962	0.952
0.2400	1.162	1.162
0.2600	1.490	1.195
0.2800	1.646	1.061
0.3000	1.697	0.968
0.3200	1.710	0.917
0.3400	1.724	0.890
0.3600	1.720	0.880
0.3800	1.727	0.886
0.4000	1.739	0.892
0.4200	1.746	0.898
0.4400	1.752	0.912
0.4600	1.761	0.929
0.4800	1.775	0.947
0.5000	1.788	0.962
0.5200	1.801	0.977
0.5400	1.812	0.992
0.5600	1.821	1.008
0.5800	1.833	1.025
0.6000	1.842	1.043
0.6200	1.852	1.062
0.6400	1.864	1.083
0.6600	1.874	1.099
0.6800	1.884	1.120
0.7000	1.895	1.142
0.7210	1.909	1.161
0.7400	1.921	1.180
0.7600	1.932	1.201
0.7800	1.945	1.219
0.8000	1.960	1.239
0.8200	1.969	1.256
0.8400	1.980	1.276
0.8600	1.995	1.297
0.8800	2.006	1.314
0.9000	2.017	1.333
0.9200	2.029	1.353
0.9400	2.042	1.373
0.9600	2.055	1.392
0.9800	2.067	1.411
1.0000	2.078	1.430
1.0200	2.090	1.450
1.0400	2.103	1.472
1.0600	2.116	1.491
1.0800	2.132	1.511
1.1000	2.145	1.530
1.1200	2.158	1.550
1.1400	2.174	1.570
1.1600	2.189	1.589
1.1800	2.205	1.607
1.2000	2.218	1.624
1.2200	2.234	1.646
1.2400	2.252	1.665
1.2600	2.269	1.682
1.2800	2.286	1.698
1.3000	2.303	1.716
1.3200	2.320	1.732
1.3400	2.338	1.747
1.3600	2.355	1.761
1.3800	2.371	1.776
1.4000	2.387	1.790
1.4200	2.403	1.805
1.4400	2.420	1.820
1.4600	2.436	1.834
1.4800	2.455	1.848
1.5000	2.472	1.860
1.5200	2.490	1.872
1.5400	2.505	1.882
1.5600	2.522	1.894
1.5800	2.536	1.904
1.6000	2.551	1.917
1.6200	2.567	1.929
1.6400	2.582	1.939
1.6600	2.597	1.950
1.6800	2.612	1.961
1.7000	2.627	1.972
1.7200	2.642	1.984
1.7400	2.658	1.995
1.7600	2.675	2.005
1.7800	2.688	2.017
1.8000	2.708	2.030
1.8200	2.732	2.037
1.8400	2.747	2.038
1.8600	2.760	2.041
1.8800	2.770	2.047
1.9000	2.782	2.055
1.9200	2.793	2.062
1.9400	2.806	2.070
1.9600	2.819	2.078
1.9800	2.831	2.085
2.0000	2.842	2.090
2.0200	2.855	2.099
2.0400	2.866	2.106
2.0600	2.878	2.112
2.0800	2.890	2.120
2.1000	2.902	2.125
2.1200	2.911	2.130
2.1400	2.921	2.136
2.1600	2.929	2.143
2.1800	2.939	2.149
2.2000	2.946	2.157
2.2200	2.955	2.164
2.2400	2.965	2.172
2.2600	2.973	2.179
2.2800	2.981	2.187
2.3000	2.989	2.196
2.3200	2.998	2.205
2.3400	3.007	2.213
2.3600	3.016	2.222
2.3800	3.025	2.231
2.4000	3.034	2.238
2.4200	3.042	2.246
2.4400	3.050	2.255
2.4600	3.059	2.264
2.4800	3.068	2.273
2.5000	3.075	2.281
2.5126	3.081	2.289
2.5253	3.082	2.294
2.5381	3.092	2.302
2.5510	3.095	2.306
2.5641	3.104	2.312
2.5773	3.106	2.318
2.5907	3.113	2.326
2.6042	3.122	2.331
2.6178	3.124	2.341
2.6316	3.134	2.341
2.6455	3.143	2.352
2.6596	3.145	2.356
2.6738	3.150	2.363
2.6882	3.159	2.370
2.7027	3.165	2.380
2.7174	3.173	2.381
2.7322	3.179	2.395
2.7473	3.183	2.399
2.7624	3.192	2.408
2.7778	3.204	2.416
2.7933	3.209	2.420
2.8090	3.215	2.424
2.8249	3.223	2.436
2.8409	3.230	2.444
2.8571	3.240	2.453
2.8736	3.246	2.459
2.8902	3.256	2.468
2.9070	3.264	2.474
2.9240	3.273	2.479
2.9412	3.282	2.489
2.9586	3.288	2.497
2.9762	3.300	2.506
2.9940	3.311	2.510
3.0120	3.318	2.522
3.0303	3.329	2.526
3.0488	3.338	2.533
3.0675	3.350	2.538
3.0864	3.357	2.553
3.1056	3.369	2.553
3.1250	3.373	2.563
3.1447	3.389	2.571
3.1646	3.397	2.578
3.1847	3.405	2.583
3.2051	3.421	2.594
3.2258	3.427	2.598
3.2468	3.437	2.610
3.2680	3.448	2.615
3.2895	3.460	2.624
3.3113	3.468	2.635
3.3333	3.483	2.636
3.3557	3.491	2.646
3.3784	3.501	2.650
3.4014	3.515	2.658
3.4247	3.521	2.667
3.4483	3.536	2.678
3.4722	3.545	2.683
3.4965	3.557	2.690
3.5211	3.567	2.699
3.5461	3.581	2.709
3.5714	3.590	2.716
3.5971	3.598	2.724
3.6232	3.611	2.735
3.6496	3.627	2.740
3.6765	3.633	2.752
3.7037	3.647	2.760
3.7313	3.661	2.768
3.7594	3.673	2.773
3.7879	3.684	2.785
3.8168	3.697	2.794
3.8462	3.708	2.805
3.8760	3.720	2.817
3.9063	3.736	2.825
3.9370	3.748	2.831
3.9683	3.757	2.849
4.0000	3.773	2.854
4.0323	3.788	2.869
4.0650	3.804	2.877
4.0984	3.818	2.889
4.1322	3.830	2.891
4.1667	3.842	2.906
4.2017	3.844	2.927
4.2373	3.876	2.948
4.2735	3.894	2.953
4.3103	3.923	2.962
4.3478	3.931	2.962
4.3860	3.945	2.971
4.4248	3.959	2.984
4.4643	3.971	2.997
4.5045	3.989	3.012
4.5455	4.010	3.025
4.5872	4.027	3.035
4.6296	4.043	3.048
4.6729	4.062	3.064
4.7170	4.084	3.075
4.7619	4.107	3.092
4.8077	4.127	3.101
4.8544	4.141	3.113
4.9020	4.173	3.122
4.9505	4.183	3.134
5.0000	4.192	3.154
5.0505	4.237	3.182
5.1020	4.266	3.191
5.1546	4.297	3.197
5.2083	4.323	3.204
5.2632	4.351	3.208
5.3191	4.378	3.218
5.3763	4.403	3.223
5.4348	4.428	3.230
5.4945	4.452	3.236
5.5556	4.478	3.242
5.6180	4.501	3.248
5.6818	4.529	3.256
5.7471	4.549	3.265
5.8140	4.575	3.265
5.8824	4.597	3.271
5.9524	4.620	3.280
6.0241	4.646	3.287
6.0976	4.669	3.291
6.1728	4.688	3.294
6.2500	4.693	3.312
6.3291	4.764	3.343
6.4103	4.780	3.316
6.4935	4.797	3.329
6.5789	4.822	3.330
6.6667	4.838	3.333
6.7568	4.863	3.341
6.8493	4.882	3.345
6.9444	4.899	3.357
7.0423	4.922	3.369
7.1429	4.948	3.375
7.2464	4.964	3.389
7.3529	4.983	3.396
7.4627	5.011	3.409
7.5758	5.030	3.419
7.6923	5.047	3.431
7.8125	5.068	3.442
7.9365	5.080	3.464
8.0645	5.113	3.486
8.1967	5.127	3.504
8.3333	5.155	3.525
8.4746	5.181	3.542
8.6207	5.207	3.565
8.7719	5.231	3.580
8.9286	5.252	3.598
9.0909	5.283	3.635
9.2593	5.309	3.653
9.4340	5.340	3.675
9.6154	5.364	3.694
9.8039	5.388	3.727
10.0000	5.420	3.759
10.2041	5.458	3.776
10.4167	5.474	3.809
10.6383	5.506	3.842
10.8696	5.532	3.865
11.1111	5.549	3.903
11.3636	5.572	3.934
11.6279	5.616	4.009
11.9048	5.638	4.037
12.1951	5.661	4.088
12.5000	5.706	4.153
12.8205	5.738	4.198
13.1579	5.777	4.250
13.5135	5.808	4.308
13.8889	5.839	4.368
14.2857	5.863	4.445
14.7059	5.904	4.541
15.1515	5.952	4.613
15.6250	5.972	4.705
16.1290	6.042	4.833
16.6667	6.101	4.938
17.2414	6.167	5.055
17.8571	6.238	5.173
18.5185	6.307	5.303
19.2308	6.367	5.434
20.0000	6.438	5.606
20.8333	6.511	5.823
21.7391	6.629	6.020
22.7273	6.777	6.281
23.8095	6.950	6.519
25.0000	7.154	6.755
26.3158	7.363	7.023
27.7778	7.602	7.307
29.4118	7.830	7.675
31.2500	8.224	8.052
33.3333	8.682	8.482
35.7143	9.225	8.868
38.4615	9.984	9.171
41.6667	10.813	9.559
45.4545	11.266	9.974
50.0000	12.390	10.524
55.5556	14.474	10.332
