Material: main / C / Querry-Asbury3222
Optical constants. M. R. Querry. Optical constants, Contractor Report CRDC-CR-85034 (1985)
Comments: Intercalated graphite pellet from Asbury 3222 powder.
wavelength (um)	n	k
0.2000	0.827	0.761
0.2200	0.918	1.022
0.2400	1.125	1.312
0.2600	1.548	1.413
0.2800	1.802	1.243
0.3000	1.892	1.094
0.3200	1.916	1.000
0.3400	1.934	0.937
0.3600	1.927	0.902
0.3800	1.936	0.890
0.4000	1.940	0.879
0.4200	1.942	0.870
0.4400	1.944	0.872
0.4600	1.951	0.879
0.4800	1.961	0.886
0.5000	1.972	0.890
0.5200	1.980	0.896
0.5400	1.987	0.903
0.5600	1.993	0.912
0.5800	2.002	0.923
0.6000	2.009	0.933
0.6200	2.016	0.945
0.6400	2.028	0.960
0.6600	2.033	0.966
0.6800	2.040	0.982
0.7000	2.050	0.995
0.7200	2.059	1.008
0.7400	2.067	1.020
0.7600	2.078	1.035
0.7800	2.088	1.046
0.8000	2.097	1.056
0.8200	2.103	1.067
0.8400	2.110	1.082
0.8600	2.119	1.094
0.8800	2.128	1.103
0.9000	2.131	1.115
0.9200	2.138	1.130
0.9402	2.145	1.142
0.9600	2.150	1.156
0.9800	2.156	1.168
1.0000	2.161	1.183
1.0200	2.165	1.198
1.0400	2.171	1.214
1.0600	2.178	1.230
1.0800	2.185	1.246
1.1000	2.191	1.260
1.1200	2.197	1.277
1.1400	2.205	1.295
1.1600	2.212	1.311
1.1800	2.219	1.327
1.2000	2.223	1.347
1.2200	2.237	1.366
1.2400	2.248	1.382
1.2600	2.258	1.397
1.2800	2.268	1.412
1.3000	2.277	1.427
1.3200	2.287	1.443
1.3400	2.297	1.458
1.3600	2.307	1.473
1.3800	2.317	1.488
1.4000	2.328	1.504
1.4200	2.339	1.519
1.4400	2.350	1.534
1.4600	2.362	1.548
1.4800	2.374	1.561
1.5000	2.386	1.574
1.5200	2.397	1.586
1.5400	2.407	1.597
1.5600	2.419	1.609
1.5800	2.428	1.619
1.6000	2.436	1.632
1.6200	2.445	1.645
1.6400	2.455	1.658
1.6600	2.464	1.670
1.6800	2.473	1.684
1.7000	2.484	1.697
1.7200	2.494	1.711
1.7400	2.505	1.724
1.7600	2.517	1.736
1.7800	2.529	1.748
1.8000	2.542	1.758
1.8200	2.552	1.767
1.8400	2.564	1.778
1.8600	2.576	1.784
1.8800	2.580	1.794
1.9000	2.589	1.805
1.9200	2.598	1.816
1.9400	2.608	1.827
1.9600	2.618	1.836
1.9800	2.626	1.845
2.0000	2.631	1.857
2.0200	2.645	1.869
2.0400	2.654	1.877
2.0600	2.663	1.886
2.0800	2.671	1.896
2.1000	2.681	1.905
2.1200	2.689	1.914
2.1400	2.697	1.923
2.1600	2.704	1.932
2.1800	2.712	1.940
2.2000	2.717	1.950
2.2200	2.724	1.961
2.2400	2.730	1.971
2.2600	2.735	1.984
2.2800	2.744	2.000
2.3000	2.761	2.012
2.3200	2.768	2.014
2.3400	2.774	2.025
2.3600	2.782	2.035
2.3800	2.790	2.045
2.4000	2.798	2.054
2.4200	2.805	2.063
2.4400	2.811	2.073
2.4600	2.818	2.085
2.4800	2.828	2.096
2.5000	2.837	2.104
2.5126	2.842	2.111
2.5253	2.846	2.116
2.5381	2.849	2.123
2.5510	2.856	2.130
2.5641	2.862	2.137
2.5773	2.867	2.141
2.5907	2.871	2.150
2.6042	2.878	2.155
2.6178	2.881	2.160
2.6316	2.886	2.168
2.6455	2.890	2.175
2.6596	2.896	2.182
2.6738	2.904	2.190
2.6882	2.908	2.192
2.7027	2.908	2.204
2.7174	2.916	2.213
2.7322	2.922	2.221
2.7473	2.930	2.229
2.7624	2.935	2.237
2.7778	2.944	2.245
2.7933	2.949	2.251
2.8090	2.956	2.260
2.8249	2.962	2.265
2.8409	2.967	2.274
2.8571	2.974	2.283
2.8736	2.982	2.293
2.8902	2.989	2.299
2.9070	2.996	2.308
2.9240	3.002	2.314
2.9412	3.010	2.325
2.9586	3.020	2.331
2.9762	3.024	2.338
2.9940	3.030	2.346
3.0120	3.035	2.357
3.0303	3.043	2.370
3.0488	3.056	2.378
3.0675	3.064	2.384
3.0864	3.071	2.395
3.1056	3.083	2.404
3.1250	3.093	2.410
3.1447	3.100	2.418
3.1646	3.110	2.427
3.1847	3.119	2.433
3.2051	3.127	2.441
3.2258	3.132	2.448
3.2468	3.144	2.460
3.2680	3.154	2.467
3.2895	3.165	2.473
3.3113	3.172	2.482
3.3333	3.184	2.489
3.3557	3.191	2.497
3.3784	3.201	2.504
3.4014	3.206	2.512
3.4247	3.216	2.522
3.4483	3.223	2.529
3.4722	3.231	2.540
3.4965	3.240	2.548
3.5211	3.251	2.562
3.5461	3.265	2.567
3.5714	3.273	2.574
3.5971	3.281	2.582
3.6232	3.290	2.592
3.6496	3.299	2.600
3.6765	3.306	2.607
3.7037	3.313	2.620
3.7313	3.324	2.629
3.7594	3.331	2.640
3.7879	3.341	2.653
3.8168	3.351	2.662
3.8462	3.359	2.678
3.8760	3.374	2.689
3.9063	3.384	2.698
3.9370	3.394	2.710
3.9683	3.403	2.720
4.0000	3.414	2.735
4.0323	3.428	2.747
4.0650	3.440	2.756
4.0984	3.452	2.768
4.1322	3.465	2.782
4.1667	3.479	2.790
4.2017	3.488	2.801
4.2373	3.497	2.813
4.2735	3.512	2.829
4.3103	3.525	2.837
4.3478	3.536	2.853
4.3860	3.550	2.863
4.4248	3.560	2.875
4.4643	3.571	2.889
4.5045	3.584	2.904
4.5455	3.599	2.918
4.5872	3.612	2.931
4.6296	3.627	2.945
4.6729	3.640	2.957
4.7170	3.651	2.972
4.7619	3.665	2.989
4.8077	3.682	3.006
4.8544	3.698	3.018
4.9020	3.714	3.029
4.9505	3.724	3.041
5.0000	3.732	3.064
5.0505	3.753	3.089
5.1020	3.777	3.102
5.1546	3.793	3.114
5.2083	3.809	3.130
5.2632	3.829	3.146
5.3191	3.847	3.160
5.3763	3.865	3.174
5.4348	3.882	3.187
5.4945	3.897	3.204
5.5556	3.915	3.218
5.6180	3.930	3.234
5.6818	3.946	3.250
5.7471	3.962	3.270
5.8140	3.979	3.289
5.8824	4.001	3.309
5.9524	4.020	3.320
6.0241	4.031	3.339
6.0976	4.047	3.357
6.1728	4.049	3.374
6.2500	4.042	3.447
6.3291	4.149	3.493
6.4103	4.177	3.445
6.4935	4.181	3.454
6.5789	4.192	3.473
6.6667	4.210	3.484
6.7568	4.212	3.505
6.8493	4.225	3.534
6.9444	4.244	3.568
7.0423	4.279	3.599
7.1429	4.309	3.605
7.2464	4.320	3.617
7.3529	4.329	3.633
7.4627	4.332	3.654
7.5758	4.332	3.688
7.6923	4.339	3.726
7.8125	4.341	3.766
7.9365	4.344	3.819
8.0645	4.353	3.887
8.1967	4.383	3.963
8.3333	4.434	4.030
8.4746	4.491	4.073
8.6207	4.529	4.108
8.7719	4.557	4.158
8.9286	4.604	4.218
9.0909	4.646	4.264
9.2593	4.692	4.336
9.4340	4.773	4.400
9.6154	4.859	4.436
9.8039	4.939	4.445
10.0000	4.986	4.438
10.2041	5.007	4.451
10.4167	5.026	4.481
10.6383	5.044	4.535
10.8696	5.082	4.590
11.1111	5.121	4.646
11.3636	5.159	4.703
11.6279	5.213	4.766
11.9048	5.259	4.813
12.1951	5.297	4.869
12.5000	5.334	4.941
12.8205	5.383	5.015
13.1579	5.430	5.084
13.5135	5.473	5.166
13.8889	5.524	5.244
14.2857	5.556	5.330
14.7059	5.602	5.452
15.1515	5.674	5.574
15.6250	5.750	5.679
16.1290	5.797	5.786
16.6667	5.819	5.946
17.2414	5.937	6.166
17.8571	6.080	6.296
18.5185	6.187	6.451
19.2308	6.300	6.603
20.0000	6.384	6.792
20.8333	6.518	7.048
21.7391	6.727	7.299
22.7273	6.970	7.491
23.8095	7.158	7.667
25.0000	7.320	7.904
26.3158	7.534	8.212
27.7778	7.809	8.512
29.4118	8.083	8.856
31.2500	8.444	9.229
33.3333	8.812	9.603
35.7143	9.210	10.068
38.4615	9.671	10.730
41.6667	10.560	11.415
45.4545	11.460	12.115
50.0000	12.951	12.751
55.5556	14.770	13.212
