Material: main / C / Querry-Dixon200-10
Optical constants. M. R. Querry. Optical constants, Contractor Report CRDC-CR-85034 (1985)
Comments: Graphite pellet from Dixon 200-10 powder.
wavelength (um)	n	k
0.2100	0.821	0.820
0.2300	0.924	1.065
0.2500	1.174	1.298
0.2700	1.498	1.276
0.2900	1.638	1.162
0.3100	1.697	1.083
0.3300	1.724	1.042
0.3500	1.742	1.009
0.3700	1.748	1.004
0.3900	1.764	1.009
0.4100	1.782	1.013
0.4300	1.794	1.019
0.4500	1.805	1.031
0.4700	1.818	1.046
0.4900	1.837	1.065
0.5100	1.854	1.076
0.5300	1.868	1.089
0.5500	1.881	1.103
0.5700	1.891	1.120
0.5900	1.906	1.137
0.6100	1.918	1.154
0.6300	1.930	1.173
0.6500	1.946	1.191
0.6700	1.955	1.208
0.6900	1.968	1.230
0.7100	1.982	1.250
0.7300	1.997	1.270
0.7500	2.012	1.290
0.7700	2.028	1.310
0.7900	2.045	1.329
0.8100	2.060	1.341
0.8300	2.073	1.357
0.8500	2.085	1.373
0.8700	2.094	1.387
0.8900	2.103	1.408
0.9100	2.113	1.429
0.9300	2.126	1.451
0.9500	2.138	1.473
0.9700	2.152	1.494
0.9900	2.166	1.514
1.0100	2.180	1.535
1.0300	2.195	1.556
1.0500	2.209	1.576
1.0700	2.225	1.596
1.0900	2.240	1.617
1.1100	2.256	1.637
1.1300	2.271	1.656
1.1500	2.290	1.678
1.1700	2.307	1.697
1.1900	2.324	1.716
1.2100	2.345	1.729
1.2300	2.359	1.748
1.2500	2.376	1.766
1.2700	2.395	1.783
1.2900	2.412	1.800
1.3100	2.430	1.817
1.3300	2.449	1.833
1.3500	2.468	1.848
1.3700	2.486	1.862
1.3900	2.504	1.876
1.4100	2.522	1.889
1.4300	2.539	1.902
1.4500	2.555	1.916
1.4700	2.572	1.930
1.4900	2.590	1.944
1.5100	2.608	1.956
1.5300	2.626	1.967
1.5500	2.642	1.980
1.5700	2.660	1.992
1.5900	2.674	2.003
1.6100	2.693	2.015
1.6300	2.709	2.026
1.6500	2.726	2.037
1.6700	2.742	2.049
1.6900	2.760	2.059
1.7100	2.775	2.069
1.7300	2.792	2.080
1.7500	2.809	2.090
1.7700	2.826	2.100
1.7900	2.843	2.109
1.8100	2.860	2.120
1.8300	2.881	2.133
1.8500	2.903	2.131
1.8700	2.914	2.131
1.8900	2.927	2.139
1.9100	2.939	2.146
1.9300	2.952	2.153
1.9500	2.966	2.160
1.9700	2.979	2.166
1.9900	2.992	2.175
2.0100	3.007	2.174
2.0300	3.017	2.182
2.0500	3.029	2.189
2.0700	3.041	2.194
2.0900	3.052	2.199
2.1100	3.063	2.204
2.1300	3.072	2.210
2.1500	3.082	2.216
2.1700	3.090	2.223
2.1900	3.100	2.229
2.2100	3.109	2.237
2.2300	3.118	2.244
2.2500	3.128	2.250
2.2700	3.135	2.257
2.2900	3.142	2.266
2.3100	3.151	2.274
2.3300	3.160	2.283
2.3500	3.169	2.292
2.3700	3.177	2.302
2.3900	3.188	2.311
2.4100	3.197	2.318
2.4300	3.206	2.326
2.4500	3.214	2.335
2.4700	3.223	2.344
2.4900	3.231	2.352
2.5063	3.238	2.364
2.5189	3.245	2.367
2.5316	3.252	2.372
2.5445	3.255	2.377
2.5575	3.265	2.385
2.5707	3.270	2.390
2.5840	3.274	2.397
2.5974	3.281	2.403
2.6110	3.287	2.411
2.6247	3.293	2.415
2.6385	3.300	2.421
2.6525	3.307	2.429
2.6667	3.312	2.437
2.6810	3.321	2.444
2.6954	3.331	2.452
2.7100	3.337	2.457
2.7248	3.346	2.464
2.7397	3.349	2.473
2.7548	3.359	2.480
2.7701	3.368	2.485
2.7855	3.375	2.493
2.8011	3.385	2.500
2.8169	3.387	2.505
2.8329	3.401	2.515
2.8490	3.409	2.521
2.8653	3.423	2.528
2.8818	3.426	2.531
2.8986	3.431	2.543
2.9155	3.443	2.553
2.9326	3.457	2.554
2.9499	3.462	2.563
2.9674	3.472	2.571
2.9851	3.484	2.579
3.0030	3.491	2.584
3.0211	3.501	2.591
3.0395	3.515	2.602
3.0581	3.522	2.605
3.0769	3.533	2.614
3.0960	3.543	2.621
3.1153	3.555	2.626
3.1348	3.564	2.636
3.1546	3.574	2.640
3.1746	3.598	2.645
3.1949	3.597	2.651
3.2154	3.606	2.658
3.2362	3.617	2.670
3.2573	3.629	2.673
3.2787	3.635	2.678
3.3003	3.648	2.685
3.3223	3.663	2.697
3.3445	3.667	2.698
3.3670	3.682	2.707
3.3898	3.695	2.710
3.4130	3.701	2.714
3.4364	3.709	2.723
3.4602	3.717	2.736
3.4843	3.732	2.742
3.5088	3.733	2.751
3.5336	3.755	2.761
3.5587	3.764	2.771
3.5842	3.778	2.780
3.6101	3.786	2.784
3.6364	3.803	2.795
3.6630	3.810	2.800
3.6900	3.826	2.808
3.7175	3.834	2.821
3.7453	3.846	2.829
3.7736	3.860	2.839
3.8023	3.876	2.847
3.8314	3.884	2.856
3.8610	3.900	2.866
3.8911	3.910	2.874
3.9216	3.925	2.887
3.9526	3.938	2.894
3.9841	3.951	2.906
4.0161	3.967	2.917
4.0486	3.980	2.922
4.0816	3.996	2.931
4.1152	4.004	2.939
4.1494	4.022	2.956
4.1841	4.019	2.968
4.2194	4.035	3.014
4.2553	4.089	3.017
4.2918	4.119	3.024
4.3290	4.140	3.008
4.3668	4.140	3.008
4.4053	4.149	3.021
4.4444	4.166	3.036
4.4843	4.181	3.043
4.5249	4.192	3.061
4.5662	4.211	3.067
4.6083	4.232	3.083
4.6512	4.248	3.093
4.6948	4.268	3.109
4.7393	4.288	3.116
4.7847	4.311	3.130
4.8309	4.330	3.141
4.8780	4.346	3.154
4.9261	4.368	3.166
4.9751	4.379	3.174
5.0251	4.402	3.221
5.0761	4.447	3.225
5.1282	4.476	3.231
5.1813	4.503	3.236
5.2356	4.536	3.241
5.2910	4.558	3.246
5.3476	4.586	3.254
5.4054	4.609	3.258
5.4645	4.635	3.263
5.5249	4.657	3.266
5.5866	4.689	3.269
5.6497	4.707	3.276
5.7143	4.729	3.277
5.7803	4.751	3.284
5.8480	4.770	3.289
5.9172	4.794	3.296
5.9880	4.817	3.305
6.0606	4.838	3.312
6.1350	4.861	3.311
6.2112	4.872	3.317
6.2893	4.890	3.371
6.3694	4.954	3.350
6.4516	4.973	3.345
6.5359	4.992	3.351
6.6225	5.008	3.358
6.7114	5.031	3.361
6.8027	5.054	3.369
6.8966	5.072	3.381
6.9930	5.093	3.391
7.0922	5.121	3.396
7.1942	5.142	3.401
7.2993	5.157	3.412
7.4074	5.181	3.418
7.5188	5.196	3.425
7.6336	5.211	3.442
7.7519	5.240	3.454
7.8740	5.240	3.461
8.0000	5.262	3.486
8.1301	5.274	3.514
8.2645	5.295	3.536
8.4034	5.332	3.572
8.5470	5.347	3.588
8.6957	5.372	3.611
8.8496	5.408	3.632
9.0090	5.426	3.664
9.1743	5.468	3.694
9.3458	5.493	3.707
9.5238	5.527	3.729
9.7087	5.554	3.752
9.9010	5.575	3.775
10.1010	5.599	3.811
10.3093	5.634	3.837
10.5263	5.665	3.869
10.7527	5.696	3.897
10.9890	5.724	3.927
11.2360	5.744	3.965
11.4943	5.756	4.020
11.7647	5.811	4.050
12.0482	5.839	4.094
12.3457	5.856	4.148
12.6582	5.895	4.199
12.9870	5.933	4.256
13.3333	5.968	4.307
13.6986	5.984	4.370
14.0845	6.014	4.446
14.4928	6.037	4.531
14.9254	6.095	4.623
15.3846	6.128	4.706
15.8730	6.156	4.842
16.3934	6.226	4.949
16.9492	6.305	5.053
17.5439	6.374	5.180
18.1818	6.445	5.295
18.8679	6.505	5.435
19.6078	6.589	5.609
20.4082	6.683	5.775
21.2766	6.794	5.977
22.2222	6.922	6.178
23.2558	7.060	6.412
24.3902	7.239	6.638
25.6410	7.429	6.898
27.0270	7.630	7.150
28.5714	7.873	7.463
30.3030	8.180	7.844
32.2581	8.529	8.184
34.4828	8.986	8.630
37.0370	9.528	9.076
40.0000	10.114	9.434
43.4783	10.869	9.764
47.6190	11.724	10.336
52.6316	13.059	10.974
