Material: main / C / Querry-Dixon1102
Optical constants. M. R. Querry. Optical constants, Contractor Report CRDC-CR-85034 (1985)
Comments: Intercalated graphite pellet from Dixon 1102 powder.
wavelength (um)	n	k
0.2000	0.855	0.663
0.2200	0.976	0.871
0.2400	1.177	1.052
0.2600	1.477	1.057
0.2800	1.610	0.919
0.3000	1.645	0.829
0.3200	1.651	0.780
0.3400	1.657	0.752
0.3600	1.650	0.741
0.3800	1.653	0.744
0.4000	1.659	0.747
0.4200	1.662	0.752
0.4400	1.665	0.762
0.4600	1.671	0.775
0.4800	1.679	0.789
0.5000	1.688	0.801
0.5200	1.695	0.813
0.5400	1.702	0.826
0.5600	1.709	0.839
0.5800	1.714	0.852
0.6000	1.718	0.868
0.6200	1.724	0.884
0.6400	1.733	0.903
0.6600	1.737	0.916
0.6800	1.743	0.935
0.7000	1.751	0.953
0.7200	1.759	0.971
0.7400	1.767	0.986
0.7600	1.773	1.005
0.7800	1.782	1.022
0.8000	1.788	1.037
0.8200	1.793	1.056
0.8400	1.800	1.076
0.8600	1.808	1.096
0.8800	1.818	1.115
0.9000	1.827	1.132
0.9200	1.835	1.151
0.9400	1.834	1.169
0.9600	1.853	1.186
0.9800	1.861	1.204
1.0000	1.870	1.223
1.0200	1.878	1.240
1.0400	1.887	1.259
1.0600	1.896	1.276
1.0800	1.906	1.296
1.1000	1.916	1.314
1.1200	1.925	1.333
1.1400	1.936	1.351
1.1600	1.947	1.369
1.1800	1.957	1.387
1.2000	1.967	1.404
1.2200	1.978	1.423
1.2400	1.991	1.441
1.2600	2.003	1.458
1.2800	2.015	1.475
1.3000	2.027	1.492
1.3200	2.040	1.508
1.3400	2.052	1.523
1.3600	2.064	1.539
1.3800	2.076	1.554
1.4000	2.088	1.570
1.4200	2.101	1.585
1.4400	2.113	1.600
1.4600	2.125	1.616
1.4800	2.139	1.631
1.5000	2.153	1.644
1.5200	2.166	1.656
1.5400	2.176	1.667
1.5600	2.189	1.681
1.5800	2.202	1.692
1.6000	2.213	1.707
1.6200	2.225	1.719
1.6400	2.236	1.731
1.6600	2.248	1.744
1.6800	2.260	1.756
1.7000	2.271	1.768
1.7200	2.283	1.781
1.7400	2.295	1.793
1.7662	2.308	1.806
1.7800	2.321	1.817
1.8000	2.335	1.827
1.8200	2.345	1.836
1.8400	2.359	1.848
1.8600	2.372	1.853
1.8800	2.378	1.863
1.9000	2.391	1.873
1.9200	2.400	1.883
1.9400	2.410	1.892
1.9600	2.421	1.902
1.9800	2.430	1.912
2.0000	2.441	1.918
2.0200	2.450	1.929
2.0400	2.459	1.938
2.0600	2.469	1.947
2.0800	2.479	1.955
2.1000	2.487	1.964
2.1200	2.496	1.972
2.1400	2.503	1.981
2.1600	2.510	1.990
2.1800	2.518	1.999
2.2000	2.525	2.009
2.2200	2.534	2.018
2.2400	2.542	2.029
2.2600	2.549	2.037
2.2800	2.556	2.047
2.3000	2.563	2.058
2.3200	2.571	2.068
2.3400	2.579	2.079
2.3600	2.587	2.089
2.3800	2.594	2.099
2.4000	2.601	2.114
2.4200	2.608	2.120
2.4400	2.620	2.135
2.4600	2.630	2.147
2.4800	2.644	2.154
2.5000	2.653	2.160
2.5126	2.657	2.162
2.5253	2.659	2.168
2.5381	2.663	2.176
2.5510	2.669	2.181
2.5641	2.675	2.189
2.5773	2.681	2.192
2.5907	2.683	2.199
2.6042	2.691	2.206
2.6178	2.693	2.210
2.6316	2.697	2.220
2.6455	2.704	2.226
2.6596	2.700	2.233
2.6738	2.715	2.240
2.6882	2.718	2.246
2.7027	2.724	2.256
2.7174	2.731	2.262
2.7322	2.735	2.269
2.7473	2.742	2.278
2.7624	2.749	2.287
2.7778	2.756	2.291
2.7933	2.759	2.301
2.8090	2.769	2.309
2.8249	2.774	2.314
2.8409	2.780	2.324
2.8571	2.780	2.331
2.8736	2.794	2.339
2.8902	2.801	2.346
2.9070	2.808	2.355
2.9240	2.815	2.364
2.9412	2.824	2.373
2.9586	2.833	2.377
2.9762	2.836	2.387
2.9940	2.847	2.394
3.0120	2.853	2.403
3.0303	2.861	2.409
3.0488	2.867	2.418
3.0675	2.875	2.425
3.0864	2.881	2.437
3.1056	2.892	2.444
3.1250	2.899	2.453
3.1447	2.907	2.459
3.1646	2.914	2.470
3.1847	2.925	2.479
3.2051	2.934	2.485
3.2258	2.940	2.495
3.2468	2.952	2.504
3.2680	2.960	2.510
3.2895	2.969	2.518
3.3113	2.976	2.524
3.3333	2.984	2.535
3.3557	2.993	2.542
3.3784	3.002	2.550
3.4014	3.007	2.559
3.4247	3.017	2.571
3.4483	3.024	2.577
3.4722	3.032	2.588
3.4965	3.041	2.598
3.5211	3.049	2.608
3.5461	3.060	2.618
3.5714	3.069	2.627
3.5971	3.080	2.635
3.6232	3.084	2.644
3.6496	3.095	2.658
3.6765	3.104	2.665
3.7037	3.112	2.679
3.7313	3.121	2.687
3.7594	3.129	2.700
3.7879	3.138	2.711
3.8168	3.148	2.725
3.8462	3.158	2.737
3.8760	3.171	2.751
3.9063	3.178	2.761
3.9370	3.191	2.777
3.9683	3.202	2.786
4.0000	3.212	2.801
4.0323	3.224	2.814
4.0650	3.238	2.829
4.0984	3.252	2.838
4.1322	3.261	2.853
4.1667	3.278	2.866
4.2017	3.289	2.874
4.2373	3.299	2.885
4.2735	3.310	2.900
4.3103	3.319	2.911
4.3478	3.331	2.932
4.3860	3.346	2.944
4.4248	3.355	2.960
4.4643	3.369	2.978
4.5045	3.384	2.992
4.5455	3.396	3.010
4.5872	3.414	3.030
4.6296	3.434	3.042
4.6729	3.447	3.055
4.7170	3.462	3.074
4.7619	3.478	3.091
4.8077	3.495	3.110
4.8544	3.514	3.126
4.9020	3.534	3.143
4.9505	3.553	3.157
5.0000	3.571	3.173
5.0505	3.590	3.189
5.1020	3.608	3.204
5.1546	3.629	3.221
5.2083	3.646	3.235
5.2632	3.666	3.255
5.3191	3.688	3.271
5.3763	3.710	3.287
5.4348	3.734	3.301
5.4945	3.752	3.313
5.5556	3.772	3.330
5.6180	3.793	3.345
5.6818	3.810	3.360
5.7471	3.832	3.380
5.8140	3.853	3.394
5.8824	3.877	3.412
5.9524	3.901	3.425
6.0241	3.920	3.438
6.0976	3.937	3.454
6.1728	3.956	3.470
6.2500	3.956	3.502
6.3291	4.011	3.547
6.4103	4.047	3.534
6.4935	4.060	3.545
6.5789	4.080	3.561
6.6667	4.100	3.576
6.7568	4.116	3.595
6.8493	4.139	3.613
6.9444	4.155	3.631
7.0423	4.175	3.655
7.1429	4.197	3.674
7.2464	4.214	3.694
7.3529	4.234	3.716
7.4627	4.247	3.738
7.5758	4.259	3.769
7.6923	4.276	3.799
7.8125	4.285	3.827
7.9365	4.292	3.877
8.0645	4.320	3.933
8.1967	4.353	3.979
8.3333	4.387	4.029
8.4746	4.426	4.071
8.6207	4.454	4.119
8.7719	4.492	4.185
8.9286	4.564	4.260
9.0909	4.669	4.298
9.2593	4.758	4.290
9.4340	4.816	4.272
9.6154	4.848	4.255
9.8039	4.860	4.249
10.0000	4.859	4.261
10.2041	4.863	4.293
10.4167	4.877	4.338
10.6383	4.895	4.385
10.8696	4.916	4.428
11.1111	4.933	4.478
11.3636	4.950	4.534
11.6279	4.974	4.606
11.9048	5.010	4.668
12.1951	5.043	4.737
12.5000	5.090	4.800
12.8205	5.120	4.859
13.1579	5.150	4.925
13.5135	5.171	5.003
13.8889	5.206	5.086
14.2857	5.234	5.167
14.7059	5.253	5.263
15.1515	5.277	5.368
15.6250	5.275	5.495
16.1290	5.319	5.670
16.6667	5.383	5.806
17.2414	5.432	5.954
17.8571	5.484	6.116
18.5185	5.532	6.292
19.2308	5.569	6.499
20.0000	5.616	6.760
20.8333	5.751	7.074
21.7391	5.954	7.316
22.7273	6.103	7.510
23.8095	6.204	7.767
25.0000	6.324	8.074
26.3158	6.459	8.437
27.7778	6.650	8.848
29.4118	6.858	9.289
31.2500	7.118	9.817
33.3333	7.444	10.388
35.7143	7.834	11.029
38.4615	8.243	11.782
41.6667	8.953	12.758
45.4545	9.814	13.750
50.0000	11.136	15.051
55.5556	13.242	16.188
