Material: main / C / Querry-DixonKS2
Optical constants. M. R. Querry. Optical constants, Contractor Report CRDC-CR-85034 (1985)
Comments: Graphite pellet from Dixon KS-2 powder.
wavelength (um)	n	k
0.2100	0.861	0.636
0.2300	0.965	0.807
0.2500	1.166	0.936
0.2700	1.367	0.886
0.2900	1.441	0.806
0.3100	1.469	0.758
0.3300	1.482	0.737
0.3500	1.489	0.719
0.3700	1.490	0.721
0.3900	1.499	0.729
0.4100	1.508	0.736
0.4300	1.514	0.745
0.4500	1.520	0.758
0.4700	1.528	0.773
0.4900	1.539	0.790
0.5100	1.549	0.802
0.5300	1.558	0.816
0.5500	1.566	0.831
0.5700	1.572	0.846
0.5900	1.581	0.863
0.6100	1.589	0.878
0.6300	1.597	0.895
0.6500	1.607	0.912
0.6700	1.612	0.928
0.6900	1.621	0.947
0.7100	1.630	0.965
0.7300	1.639	0.983
0.7500	1.648	1.000
0.7700	1.658	1.018
0.7900	1.668	1.036
0.8100	1.678	1.049
0.8300	1.686	1.066
0.8500	1.694	1.083
0.8700	1.701	1.099
0.8900	1.708	1.118
0.9100	1.716	1.135
0.9300	1.724	1.154
0.9500	1.733	1.173
0.9700	1.742	1.191
0.9900	1.751	1.210
1.0100	1.761	1.228
1.0300	1.771	1.247
1.0500	1.781	1.266
1.0700	1.791	1.283
1.0900	1.801	1.302
1.1100	1.812	1.320
1.1300	1.822	1.338
1.1500	1.834	1.356
1.1700	1.845	1.375
1.1900	1.856	1.393
1.2100	1.870	1.410
1.2300	1.883	1.427
1.2500	1.895	1.444
1.2700	1.907	1.460
1.2900	1.920	1.476
1.3100	1.933	1.493
1.3300	1.945	1.508
1.3500	1.959	1.524
1.3700	1.971	1.539
1.3900	1.985	1.554
1.4100	1.997	1.568
1.4300	2.010	1.583
1.4500	2.023	1.597
1.4700	2.036	1.611
1.4900	2.048	1.625
1.5100	2.062	1.640
1.5300	2.076	1.653
1.5500	2.088	1.667
1.5700	2.102	1.680
1.5900	2.113	1.692
1.6100	2.127	1.705
1.6300	2.141	1.717
1.6500	2.153	1.729
1.6700	2.166	1.741
1.6900	2.178	1.754
1.7100	2.191	1.765
1.7300	2.204	1.777
1.7500	2.218	1.789
1.7700	2.231	1.801
1.7900	2.246	1.812
1.8100	2.260	1.820
1.8300	2.271	1.831
1.8500	2.286	1.840
1.8700	2.297	1.847
1.8900	2.307	1.857
1.9100	2.319	1.867
1.9300	2.331	1.876
1.9500	2.343	1.885
1.9700	2.354	1.895
1.9900	2.366	1.904
2.0100	2.380	1.911
2.0300	2.389	1.920
2.0500	2.400	1.928
2.0700	2.411	1.936
2.0900	2.423	1.944
2.1100	2.433	1.951
2.1300	2.442	1.958
2.1500	2.452	1.965
2.1700	2.460	1.973
2.1900	2.469	1.981
2.2100	2.477	1.989
2.2300	2.486	1.998
2.2500	2.496	2.007
2.2700	2.503	2.014
2.2900	2.510	2.023
2.3100	2.519	2.032
2.3300	2.527	2.042
2.3500	2.535	2.051
2.3700	2.544	2.061
2.3900	2.553	2.070
2.4100	2.561	2.076
2.4300	2.570	2.088
2.4500	2.577	2.096
2.4700	2.581	2.107
2.4900	2.592	2.120
2.5063	2.602	2.132
2.5189	2.609	2.133
2.5316	2.615	2.140
2.5445	2.620	2.145
2.5575	2.627	2.153
2.5707	2.634	2.158
2.5840	2.639	2.162
2.5974	2.644	2.170
2.6110	2.651	2.175
2.6247	2.657	2.184
2.6385	2.664	2.187
2.6525	2.673	2.195
2.6667	2.677	2.202
2.6810	2.682	2.205
2.6954	2.691	2.215
2.7100	2.694	2.220
2.7248	2.703	2.227
2.7397	2.711	2.236
2.7548	2.716	2.242
2.7701	2.724	2.250
2.7855	2.729	2.258
2.8011	2.739	2.267
2.8169	2.745	2.272
2.8329	2.754	2.281
2.8490	2.760	2.287
2.8653	2.774	2.295
2.8818	2.779	2.301
2.8986	2.786	2.307
2.9155	2.794	2.318
2.9326	2.806	2.324
2.9499	2.814	2.330
2.9674	2.823	2.339
2.9851	2.832	2.346
3.0030	2.841	2.354
3.0211	2.853	2.360
3.0395	2.863	2.368
3.0581	2.871	2.373
3.0769	2.880	2.380
3.0960	2.891	2.387
3.1153	2.895	2.395
3.1348	2.909	2.406
3.1546	2.918	2.409
3.1746	2.929	2.420
3.1949	2.942	2.421
3.2154	2.947	2.430
3.2362	2.960	2.436
3.2573	2.971	2.442
3.2787	2.979	2.450
3.3003	2.991	2.459
3.3223	3.000	2.464
3.3445	3.011	2.469
3.3670	3.022	2.477
3.3898	3.031	2.482
3.4130	3.039	2.488
3.4364	3.050	2.496
3.4602	3.061	2.505
3.4843	3.070	2.511
3.5088	3.078	2.519
3.5336	3.092	2.529
3.5587	3.102	2.538
3.5842	3.114	2.547
3.6101	3.127	2.550
3.6364	3.139	2.561
3.6630	3.148	2.567
3.6900	3.161	2.576
3.7175	3.171	2.583
3.7453	3.184	2.593
3.7736	3.193	2.602
3.8023	3.208	2.607
3.8314	3.217	2.620
3.8610	3.231	2.626
3.8911	3.244	2.634
3.9216	3.254	2.644
3.9526	3.269	2.654
3.9841	3.283	2.664
4.0161	3.295	2.674
4.0486	3.311	2.682
4.0816	3.328	2.690
4.1152	3.343	2.698
4.1494	3.366	2.708
4.1841	3.392	2.715
4.2194	3.417	2.669
4.2553	3.367	2.678
4.2918	3.361	2.701
4.3290	3.366	2.746
4.3668	3.393	2.772
4.4053	3.419	2.782
4.4444	3.437	2.796
4.4843	3.456	2.806
4.5249	3.471	2.817
4.5662	3.488	2.828
4.6083	3.506	2.845
4.6512	3.528	2.853
4.6948	3.547	2.863
4.7393	3.562	2.872
4.7847	3.581	2.887
4.8309	3.604	2.899
4.8780	3.616	2.907
4.9261	3.639	2.921
4.9751	3.650	2.928
5.0251	3.672	2.959
5.0761	3.702	2.965
5.1282	3.726	2.974
5.1813	3.748	2.982
5.2356	3.773	2.991
5.2910	3.793	3.000
5.3476	3.817	3.006
5.4054	3.838	3.010
5.4645	3.856	3.022
5.5249	3.882	3.030
5.5866	3.902	3.040
5.6497	3.922	3.046
5.7143	3.944	3.051
5.7803	3.959	3.065
5.8480	3.986	3.069
5.9172	4.001	3.081
5.9880	4.019	3.090
6.0606	4.040	3.099
6.1350	4.059	3.105
6.2112	4.073	3.115
6.2893	4.085	3.162
6.3694	4.145	3.161
6.4516	4.162	3.154
6.5359	4.177	3.173
6.6225	4.198	3.180
6.7114	4.220	3.194
6.8027	4.247	3.204
6.8966	4.264	3.218
6.9930	4.288	3.226
7.0922	4.313	3.240
7.1942	4.334	3.255
7.2993	4.359	3.268
7.4074	4.382	3.279
7.5188	4.406	3.291
7.6336	4.423	3.306
7.7519	4.443	3.324
7.8740	4.465	3.336
8.0000	4.490	3.361
8.1301	4.511	3.389
8.2645	4.533	3.401
8.4034	4.564	3.427
8.5470	4.588	3.449
8.6957	4.612	3.474
8.8496	4.647	3.490
9.0090	4.664	3.523
9.1743	4.703	3.553
9.3458	4.729	3.569
9.5238	4.758	3.601
9.7087	4.798	3.630
9.9010	4.825	3.653
10.1010	4.859	3.686
10.3093	4.892	3.716
10.5263	4.924	3.749
10.7527	4.969	3.779
10.9890	5.003	3.807
11.2360	5.035	3.842
11.4943	5.059	3.888
11.7647	5.116	3.917
12.0482	5.140	3.954
12.3457	5.177	4.001
12.6582	5.211	4.046
12.9870	5.255	4.103
13.3333	5.291	4.152
13.6986	5.336	4.211
14.0845	5.381	4.279
14.4928	5.422	4.328
14.9254	5.457	4.405
15.3846	5.501	4.491
15.8730	5.572	4.579
16.3934	5.614	4.664
16.9492	5.681	4.762
17.5439	5.738	4.874
18.1818	5.817	4.984
18.8679	5.884	5.115
19.6078	5.981	5.261
20.4082	6.068	5.410
21.2766	6.182	5.581
22.2222	6.306	5.748
23.2558	6.461	5.946
24.3902	6.611	6.135
25.6410	6.783	6.372
27.0270	6.991	6.620
28.5714	7.242	6.881
30.3030	7.545	7.177
32.2581	7.909	7.502
34.4828	8.307	7.717
37.0370	8.712	8.068
40.0000	9.220	8.502
43.4783	9.937	8.853
47.6190	10.808	9.430
52.6316	12.172	9.771
