Material: main / C / Querry-AsburyMicro260
Optical constants. M. R. Querry. Optical constants, Contractor Report CRDC-CR-85034 (1985)
Comments: Graphite pellet from Asbury Micro 260 powder.
wavelength (um)	n	k
0.2100	0.860	0.689
0.2300	0.973	0.880
0.2500	1.198	1.026
0.2700	1.431	0.969
0.2900	1.516	0.873
0.3100	1.547	0.813
0.3300	1.562	0.785
0.3500	1.569	0.760
0.3700	1.570	0.759
0.3900	1.579	0.766
0.4100	1.590	0.769
0.4300	1.596	0.776
0.4500	1.602	0.788
0.4700	1.611	0.802
0.4900	1.622	0.817
0.5100	1.634	0.828
0.5300	1.643	0.840
0.5500	1.652	0.853
0.5700	1.659	0.867
0.5900	1.669	0.882
0.6100	1.677	0.897
0.6300	1.685	0.912
0.6500	1.693	0.927
0.6700	1.699	0.945
0.6900	1.709	0.963
0.7100	1.719	0.980
0.7300	1.729	0.997
0.7500	1.739	1.014
0.7700	1.750	1.032
0.7900	1.761	1.048
0.8100	1.773	1.060
0.8300	1.781	1.076
0.8500	1.789	1.091
0.8700	1.796	1.107
0.8900	1.806	1.124
0.9117	1.813	1.140
0.9300	1.821	1.159
0.9500	1.831	1.177
0.9700	1.841	1.195
0.9900	1.851	1.212
1.0100	1.862	1.229
1.0300	1.872	1.246
1.0500	1.882	1.263
1.0700	1.893	1.281
1.0900	1.905	1.298
1.1100	1.915	1.314
1.1300	1.925	1.333
1.1500	1.938	1.350
1.1700	1.950	1.367
1.1900	1.962	1.383
1.2100	1.977	1.398
1.2300	1.989	1.415
1.2500	2.001	1.430
1.2700	2.015	1.445
1.2900	2.026	1.460
1.3100	2.040	1.475
1.3300	2.053	1.490
1.3500	2.067	1.503
1.3700	2.079	1.517
1.3900	2.093	1.531
1.4100	2.105	1.544
1.4300	2.117	1.557
1.4500	2.131	1.570
1.4700	2.143	1.583
1.4900	2.155	1.596
1.5100	2.170	1.610
1.5300	2.183	1.621
1.5500	2.195	1.634
1.5700	2.209	1.646
1.5900	2.221	1.657
1.6100	2.235	1.669
1.6300	2.248	1.679
1.6500	2.260	1.691
1.6700	2.273	1.703
1.6900	2.286	1.714
1.7100	2.299	1.724
1.7300	2.311	1.735
1.7500	2.325	1.746
1.7700	2.338	1.756
1.7900	2.352	1.766
1.8100	2.366	1.773
1.8300	2.377	1.783
1.8500	2.392	1.791
1.8700	2.402	1.796
1.8900	2.413	1.806
1.9100	2.424	1.814
1.9300	2.435	1.823
1.9500	2.447	1.831
1.9700	2.459	1.839
1.9900	2.470	1.847
2.0100	2.482	1.852
2.0300	2.492	1.861
2.0500	2.502	1.868
2.0700	2.513	1.875
2.0900	2.523	1.882
2.1100	2.533	1.888
2.1300	2.542	1.895
2.1500	2.551	1.902
2.1700	2.560	1.909
2.1900	2.568	1.916
2.2100	2.576	1.924
2.2300	2.585	1.931
2.2500	2.594	1.939
2.2700	2.601	1.946
2.2900	2.609	1.954
2.3100	2.617	1.962
2.3300	2.625	1.971
2.3500	2.633	1.979
2.3700	2.641	1.987
2.3900	2.650	1.996
2.4100	2.658	2.003
2.4300	2.666	2.012
2.4500	2.674	2.019
2.4700	2.681	2.028
2.4900	2.688	2.037
2.5063	2.696	2.047
2.5189	2.699	2.051
2.5316	2.707	2.054
2.5445	2.709	2.061
2.5575	2.718	2.067
2.5707	2.722	2.073
2.5840	2.727	2.078
2.5974	2.732	2.086
2.6110	2.736	2.088
2.6247	2.741	2.096
2.6385	2.749	2.103
2.6525	2.757	2.109
2.6667	2.760	2.117
2.6810	2.766	2.122
2.6954	2.775	2.129
2.7100	2.779	2.134
2.7248	2.791	2.141
2.7397	2.796	2.149
2.7548	2.800	2.154
2.7701	2.807	2.163
2.7855	2.817	2.168
2.8011	2.823	2.176
2.8169	2.827	2.178
2.8329	2.837	2.190
2.8490	2.844	2.196
2.8653	2.853	2.201
2.8818	2.859	2.205
2.8986	2.865	2.216
2.9155	2.877	2.226
2.9326	2.886	2.228
2.9499	2.890	2.237
2.9674	2.902	2.245
2.9851	2.910	2.254
3.0030	2.917	2.255
3.0211	2.929	2.265
3.0395	2.939	2.273
3.0581	2.945	2.277
3.0769	2.953	2.285
3.0960	2.962	2.291
3.1153	2.973	2.298
3.1348	2.983	2.307
3.1546	2.993	2.310
3.1746	3.003	2.318
3.1949	3.011	2.324
3.2154	3.019	2.327
3.2362	3.030	2.340
3.2573	3.041	2.341
3.2787	3.048	2.347
3.3003	3.061	2.356
3.3223	3.070	2.361
3.3445	3.078	2.366
3.3670	3.087	2.374
3.3898	3.100	2.381
3.4130	3.104	2.386
3.4364	3.117	2.393
3.4602	3.125	2.400
3.4843	3.135	2.406
3.5088	3.142	2.415
3.5336	3.157	2.424
3.5587	3.166	2.432
3.5842	3.178	2.438
3.6101	3.187	2.444
3.6364	3.200	2.451
3.6630	3.210	2.460
3.6900	3.220	2.465
3.7175	3.227	2.474
3.7453	3.240	2.480
3.7736	3.250	2.492
3.8023	3.263	2.498
3.8314	3.273	2.506
3.8610	3.287	2.513
3.8911	3.294	2.520
3.9216	3.307	2.533
3.9526	3.319	2.542
3.9841	3.332	2.549
4.0161	3.341	2.557
4.0486	3.355	2.563
4.0816	3.370	2.573
4.1152	3.378	2.580
4.1494	3.385	2.590
4.1841	3.393	2.600
4.2194	3.403	2.636
4.2553	3.439	2.640
4.2918	3.467	2.650
4.3290	3.484	2.639
4.3668	3.489	2.642
4.4053	3.496	2.654
4.4444	3.511	2.663
4.4843	3.525	2.672
4.5249	3.536	2.683
4.5662	3.550	2.692
4.6083	3.564	2.703
4.6512	3.581	2.712
4.6948	3.596	2.729
4.7393	3.610	2.733
4.7847	3.626	2.748
4.8309	3.647	2.754
4.8780	3.659	2.764
4.9261	3.676	2.777
4.9751	3.687	2.783
5.0251	3.700	2.820
5.0761	3.733	2.828
5.1282	3.756	2.833
5.1813	3.778	2.843
5.2356	3.800	2.849
5.2910	3.820	2.857
5.3476	3.841	2.867
5.4054	3.861	2.871
5.4645	3.880	2.879
5.5249	3.901	2.886
5.5866	3.921	2.893
5.6497	3.938	2.900
5.7143	3.954	2.912
5.7803	3.976	2.918
5.8480	3.994	2.924
5.9172	4.013	2.938
5.9880	4.030	2.942
6.0606	4.046	2.952
6.1350	4.065	2.957
6.2112	4.074	2.966
6.2893	4.083	3.015
6.3694	4.141	3.017
6.4516	4.159	3.014
6.5359	4.177	3.027
6.6225	4.197	3.034
6.7114	4.216	3.047
6.8027	4.237	3.055
6.8966	4.258	3.068
6.9930	4.277	3.080
7.0922	4.301	3.094
7.1942	4.323	3.106
7.2993	4.342	3.118
7.4074	4.366	3.130
7.5188	4.378	3.142
7.6336	4.398	3.158
7.7519	4.417	3.175
7.8740	4.433	3.188
8.0000	4.456	3.217
8.1301	4.481	3.243
8.2645	4.507	3.262
8.4034	4.534	3.285
8.5470	4.562	3.304
8.6957	4.582	3.323
8.8496	4.614	3.344
9.0090	4.631	3.368
9.1743	4.665	3.402
9.3458	4.691	3.421
9.5238	4.721	3.450
9.7087	4.753	3.471
9.9010	4.784	3.497
10.1010	4.806	3.531
10.3093	4.839	3.561
10.5263	4.874	3.595
10.7527	4.907	3.620
10.9890	4.935	3.651
11.2360	4.959	3.686
11.4943	4.977	3.744
11.7647	5.032	3.775
12.0482	5.061	3.819
12.3457	5.098	3.877
12.6582	5.144	3.918
12.9870	5.186	3.971
13.3333	5.222	4.015
13.6986	5.259	4.071
14.0845	5.296	4.133
14.4928	5.326	4.210
14.9254	5.392	4.293
15.3846	5.433	4.357
15.8730	5.479	4.469
16.3934	5.558	4.559
16.9492	5.625	4.651
17.5439	5.705	4.748
18.1818	5.778	4.849
18.8679	5.858	4.962
19.6078	5.939	5.076
20.4082	6.015	5.234
21.2766	6.128	5.406
22.2222	6.248	5.576
23.2558	6.403	5.774
24.3902	6.583	5.955
25.6410	6.753	6.154
27.0270	6.960	6.362
28.5714	7.165	6.580
30.3030	7.456	6.925
32.2581	7.798	7.193
34.4828	8.216	7.528
37.0370	8.719	7.833
40.0000	9.205	8.039
43.4783	9.809	8.196
47.6190	10.478	8.667
52.6316	11.354	9.407
