Material: main / C / Querry-Pyrolytic
Optical constants. M. R. Querry. Optical constants, Contractor Report CRDC-CR-85034 (1985)
Comments: Pyrolytic carbon (pyrolytic graphite).
wavelength (um)	n	k
0.2100	1.248	0.411
0.2300	1.361	0.564
0.2500	1.532	0.603
0.2700	1.643	0.511
0.2900	1.626	0.445
0.3100	1.600	0.434
0.3300	1.583	0.447
0.3500	1.570	0.465
0.3700	1.565	0.491
0.3900	1.565	0.517
0.4100	1.566	0.542
0.4300	1.568	0.569
0.4500	1.574	0.596
0.4700	1.581	0.623
0.4900	1.591	0.648
0.5100	1.600	0.669
0.5300	1.608	0.690
0.5500	1.615	0.711
0.5700	1.622	0.732
0.5900	1.627	0.754
0.6100	1.634	0.777
0.6300	1.640	0.800
0.6500	1.651	0.822
0.6700	1.657	0.844
0.6900	1.666	0.866
0.7100	1.675	0.888
0.7300	1.684	0.909
0.7500	1.693	0.929
0.7700	1.702	0.950
0.7900	1.711	0.970
0.8100	1.718	0.988
0.8300	1.725	1.011
0.8500	1.736	1.032
0.8700	1.748	1.054
0.8900	1.758	1.070
0.9100	1.768	1.090
0.9300	1.778	1.107
0.9500	1.787	1.124
0.9700	1.796	1.141
0.9900	1.804	1.158
1.0100	1.811	1.176
1.0300	1.819	1.194
1.0500	1.827	1.213
1.0700	1.836	1.231
1.0900	1.844	1.249
1.1100	1.852	1.266
1.1300	1.859	1.284
1.1500	1.867	1.302
1.1700	1.874	1.321
1.1900	1.880	1.338
1.2100	1.891	1.366
1.2300	1.904	1.382
1.2500	1.914	1.399
1.2700	1.925	1.416
1.2900	1.935	1.432
1.3100	1.945	1.448
1.3300	1.954	1.465
1.3500	1.962	1.482
1.3700	1.971	1.499
1.3900	1.981	1.516
1.4100	1.990	1.533
1.4300	2.001	1.551
1.4500	2.012	1.567
1.4700	2.022	1.584
1.4900	2.032	1.600
1.5100	2.043	1.616
1.5300	2.055	1.630
1.5500	2.066	1.646
1.5700	2.076	1.660
1.5900	2.085	1.673
1.6100	2.094	1.687
1.6300	2.101	1.702
1.6500	2.108	1.720
1.6700	2.124	1.735
1.6900	2.132	1.749
1.7100	2.141	1.765
1.7300	2.151	1.780
1.7500	2.162	1.795
1.7700	2.174	1.809
1.7900	2.184	1.824
1.8100	2.197	1.836
1.8300	2.207	1.848
1.8500	2.217	1.861
1.8700	2.224	1.868
1.8900	2.232	1.884
1.9100	2.239	1.896
1.9300	2.247	1.910
1.9500	2.255	1.925
1.9700	2.263	1.937
1.9900	2.266	1.950
2.0100	2.277	1.979
2.0300	2.293	1.991
2.0500	2.305	2.003
2.0700	2.316	2.015
2.0900	2.327	2.026
2.1100	2.336	2.038
2.1300	2.345	2.051
2.1500	2.354	2.062
2.1700	2.363	2.075
2.1900	2.372	2.087
2.2100	2.379	2.100
2.2300	2.387	2.114
2.2500	2.394	2.129
2.2700	2.406	2.145
2.2900	2.419	2.160
2.3100	2.431	2.170
2.3300	2.440	2.182
2.3500	2.450	2.196
2.3700	2.462	2.208
2.3900	2.472	2.220
2.4100	2.482	2.232
2.4300	2.492	2.245
2.4500	2.504	2.260
2.4700	2.521	2.273
2.4900	2.542	2.285
2.5063	2.551	2.264
2.5189	2.547	2.271
2.5316	2.546	2.282
2.5445	2.552	2.291
2.5575	2.555	2.297
2.5707	2.559	2.306
2.5840	2.565	2.315
2.5974	2.571	2.322
2.6110	2.576	2.331
2.6247	2.582	2.338
2.6385	2.587	2.344
2.6525	2.590	2.354
2.6667	2.597	2.365
2.6810	2.607	2.373
2.6954	2.612	2.378
2.7100	2.615	2.388
2.7248	2.626	2.399
2.7397	2.633	2.405
2.7548	2.639	2.413
2.7701	2.646	2.421
2.7855	2.652	2.431
2.8011	2.659	2.440
2.8169	2.667	2.450
2.8329	2.675	2.457
2.8490	2.682	2.466
2.8653	2.689	2.476
2.8818	2.698	2.484
2.8986	2.703	2.493
2.9155	2.713	2.503
2.9326	2.721	2.509
2.9499	2.728	2.517
2.9674	2.734	2.527
2.9851	2.742	2.537
3.0030	2.751	2.548
3.0211	2.759	2.557
3.0395	2.771	2.567
3.0581	2.778	2.573
3.0769	2.786	2.583
3.0960	2.795	2.592
3.1153	2.803	2.602
3.1348	2.811	2.612
3.1546	2.822	2.621
3.1746	2.830	2.629
3.1949	2.839	2.642
3.2154	2.850	2.649
3.2362	2.856	2.659
3.2573	2.869	2.668
3.2787	2.877	2.676
3.3003	2.884	2.686
3.3223	2.893	2.698
3.3445	2.903	2.707
3.3670	2.911	2.718
3.3898	2.921	2.727
3.4130	2.928	2.740
3.4364	2.942	2.752
3.4602	2.951	2.762
3.4843	2.962	2.773
3.5088	2.971	2.783
3.5336	2.982	2.794
3.5587	2.991	2.803
3.5842	3.000	2.817
3.6101	3.011	2.827
3.6364	3.021	2.840
3.6630	3.033	2.851
3.6900	3.043	2.861
3.7175	3.052	2.875
3.7453	3.065	2.888
3.7736	3.076	2.900
3.8023	3.089	2.912
3.8314	3.101	2.922
3.8610	3.109	2.934
3.8911	3.122	2.949
3.9216	3.132	2.962
3.9526	3.146	2.977
3.9841	3.157	2.989
4.0161	3.170	3.002
4.0486	3.183	3.017
4.0816	3.198	3.028
4.1152	3.210	3.039
4.1494	3.219	3.054
4.1841	3.235	3.073
4.2194	3.251	3.080
4.2553	3.259	3.093
4.2918	3.272	3.107
4.3290	3.280	3.124
4.3668	3.294	3.145
4.4053	3.312	3.160
4.4444	3.324	3.174
4.4843	3.337	3.191
4.5249	3.352	3.208
4.5662	3.368	3.225
4.6083	3.383	3.239
4.6512	3.396	3.258
4.6948	3.414	3.277
4.7393	3.430	3.292
4.7847	3.447	3.307
4.8309	3.460	3.327
4.8780	3.477	3.342
4.9261	3.490	3.359
4.9751	3.491	3.376
5.0251	3.507	3.421
5.0761	3.541	3.444
5.1282	3.563	3.463
5.1813	3.588	3.483
5.2356	3.611	3.498
5.2910	3.628	3.519
5.3476	3.652	3.540
5.4054	3.675	3.558
5.4645	3.693	3.576
5.5249	3.714	3.600
5.5866	3.737	3.622
5.6497	3.757	3.643
5.7143	3.779	3.667
5.7803	3.806	3.690
5.8480	3.829	3.715
5.9172	3.858	3.740
5.9880	3.886	3.760
6.0606	3.909	3.780
6.1350	3.939	3.799
6.2112	3.956	3.815
6.2893	3.969	3.850
6.3694	4.010	3.888
6.4516	4.043	3.904
6.5359	4.069	3.931
6.6225	4.103	3.955
6.7114	4.130	3.975
6.8027	4.155	4.006
6.8966	4.190	4.031
6.9930	4.220	4.061
7.0922	4.254	4.079
7.1942	4.280	4.107
7.2993	4.310	4.134
7.4074	4.342	4.161
7.5188	4.373	4.190
7.6336	4.404	4.219
7.7519	4.436	4.250
7.8740	4.464	4.283
8.0000	4.495	4.316
8.1301	4.523	4.356
8.2645	4.561	4.400
8.4034	4.605	4.434
8.5470	4.646	4.471
8.6957	4.678	4.505
8.8496	4.717	4.551
9.0090	4.755	4.589
9.1743	4.798	4.640
9.3458	4.845	4.683
9.5238	4.889	4.727
9.7087	4.937	4.774
9.9010	4.988	4.822
10.1010	5.037	4.863
10.3093	5.079	4.909
10.5263	5.120	4.966
10.7527	5.175	5.020
10.9890	5.216	5.077
11.2360	5.269	5.144
11.4943	5.317	5.208
11.7647	5.373	5.286
12.0482	5.430	5.367
12.3457	5.499	5.449
12.6582	5.571	5.527
12.9870	5.639	5.618
13.3333	5.720	5.705
13.6986	5.794	5.799
14.0845	5.878	5.898
14.4928	5.950	6.016
14.9254	6.059	6.134
15.3846	6.136	6.247
15.8730	6.240	6.442
16.3934	6.434	6.602
16.9492	6.607	6.723
17.5439	6.779	6.842
18.1818	6.962	6.960
18.8679	7.128	7.072
19.6078	7.290	7.223
20.4082	7.451	7.406
21.2766	7.695	7.629
22.2222	7.963	7.818
23.2558	8.276	8.037
24.3902	8.636	8.232
25.6410	9.042	8.384
27.0270	9.409	8.524
28.5714	9.835	8.710
30.3030	10.332	8.901
32.2581	10.868	9.033
34.4828	11.487	9.217
37.0370	12.246	9.253
40.0000	13.029	9.235
43.4783	13.742	9.110
47.6190	14.597	8.938
52.6316	15.416	8.874
