Material: main / C / Song-HiPco
Optical constants. B. Song, F. Liu, H. Wang, J. Miao, Y. Chen, P. Kumar, H. Zhang, X. Liu, H. Gu, E. A. Stach, X. Liang, S. Liu, Z. Fakhraai, D. Jariwala. Giant gate-tunability of complex refractive index in semiconducting carbon nanotubes, ACS Photonics 7, 2896-2905 (2020)(see Supporting information for details)
Comments: Carbon nanotubes. High-pressure carbon monoxide (HiPco) grown semiconducting single wall carbon nanotube (s-SWCNT) film on Si/SiO2 substrate.
Specs: {"n_absolute": true, "wavelength_vacuum": true, "substrate": "Si/SIO2"}
wavelength (um)	n	k
0.37096	2.24	0.83
0.37412	2.25	0.78
0.37729	2.26	0.73
0.38045	2.27	0.69
0.38362	2.27	0.65
0.38679	2.27	0.62
0.38995	2.26	0.58
0.39312	2.25	0.55
0.39629	2.25	0.52
0.39946	2.24	0.49
0.40262	2.22	0.47
0.40579	2.21	0.45
0.40896	2.20	0.43
0.41213	2.19	0.41
0.41530	2.18	0.39
0.41848	2.16	0.38
0.42165	2.15	0.36
0.42482	2.14	0.35
0.42799	2.12	0.34
0.43117	2.11	0.33
0.43434	2.10	0.32
0.43751	2.08	0.31
0.44069	2.07	0.30
0.44386	2.06	0.29
0.44704	2.04	0.29
0.45022	2.03	0.28
0.45339	2.02	0.28
0.45657	2.00	0.27
0.45975	1.99	0.27
0.46292	1.98	0.27
0.46610	1.96	0.26
0.46928	1.95	0.26
0.47246	1.94	0.26
0.47564	1.93	0.26
0.47882	1.91	0.26
0.48200	1.90	0.26
0.48518	1.89	0.26
0.48836	1.88	0.26
0.49154	1.86	0.27
0.49472	1.85	0.27
0.49790	1.84	0.27
0.50108	1.83	0.28
0.50426	1.82	0.28
0.50744	1.80	0.29
0.51063	1.79	0.30
0.51381	1.78	0.30
0.51699	1.77	0.31
0.52018	1.76	0.32
0.52336	1.75	0.33
0.52654	1.74	0.34
0.52973	1.73	0.35
0.53291	1.72	0.36
0.53609	1.72	0.37
0.53928	1.71	0.38
0.54246	1.70	0.40
0.54565	1.70	0.41
0.54883	1.69	0.42
0.55202	1.69	0.44
0.55520	1.69	0.45
0.55839	1.69	0.46
0.56158	1.69	0.48
0.56476	1.69	0.49
0.56795	1.69	0.50
0.57113	1.69	0.51
0.57432	1.70	0.52
0.57751	1.70	0.53
0.58069	1.70	0.54
0.58388	1.71	0.55
0.58707	1.71	0.56
0.59025	1.71	0.56
0.59344	1.71	0.57
0.59663	1.71	0.58
0.59981	1.71	0.58
0.60300	1.70	0.59
0.60619	1.70	0.60
0.60938	1.70	0.61
0.61256	1.69	0.63
0.61575	1.69	0.64
0.61894	1.68	0.66
0.62213	1.68	0.69
0.62531	1.68	0.71
0.62850	1.68	0.74
0.63169	1.69	0.78
0.63487	1.71	0.82
0.63806	1.74	0.85
0.64125	1.77	0.88
0.64444	1.82	0.91
0.64762	1.88	0.92
0.65081	1.93	0.92
0.65400	1.99	0.90
0.65718	2.04	0.87
0.66037	2.07	0.83
0.66356	2.10	0.79
0.66674	2.11	0.75
0.66993	2.11	0.70
0.67312	2.10	0.67
0.67630	2.08	0.64
0.67949	2.06	0.61
0.68267	2.04	0.59
0.68586	2.02	0.58
0.68905	1.99	0.58
0.69223	1.96	0.58
0.69542	1.94	0.58
0.69860	1.92	0.60
0.70179	1.90	0.61
0.70497	1.88	0.64
0.70816	1.87	0.67
0.71134	1.86	0.70
0.71453	1.87	0.74
0.71771	1.88	0.78
0.72089	1.91	0.82
0.72408	1.95	0.85
0.72726	2.01	0.86
0.73044	2.06	0.86
0.73363	2.12	0.85
0.73681	2.16	0.81
0.73999	2.19	0.77
0.74317	2.21	0.73
0.74636	2.22	0.69
0.74954	2.22	0.64
0.75272	2.21	0.61
0.75590	2.19	0.58
0.75908	2.17	0.55
0.76226	2.15	0.54
0.76544	2.13	0.52
0.76862	2.11	0.51
0.77180	2.09	0.50
0.77498	2.07	0.50
0.77816	2.05	0.50
0.78133	2.03	0.50
0.78451	2.01	0.51
0.78769	2.00	0.52
0.79087	1.98	0.53
0.79404	1.97	0.55
0.79722	1.97	0.56
0.80040	1.97	0.58
0.80357	1.97	0.59
0.80675	1.99	0.60
0.80992	2.00	0.61
0.81309	2.01	0.60
0.81627	2.02	0.59
0.81944	2.02	0.58
0.82261	2.02	0.57
0.82579	2.01	0.56
0.82896	2.01	0.56
0.83213	2.00	0.55
0.83530	1.99	0.55
0.83847	1.98	0.55
0.84164	1.97	0.55
0.84481	1.96	0.55
0.84798	1.95	0.56
0.85115	1.94	0.56
0.85431	1.93	0.56
0.85748	1.93	0.57
0.86065	1.92	0.57
0.86381	1.92	0.58
0.86698	1.91	0.58
0.87014	1.90	0.59
0.87331	1.90	0.60
0.87647	1.89	0.60
0.87964	1.89	0.61
0.88280	1.89	0.61
0.88596	1.88	0.62
0.88912	1.88	0.63
0.89228	1.87	0.63
0.89544	1.87	0.64
0.89860	1.86	0.65
0.90176	1.86	0.65
0.90492	1.86	0.66
0.90808	1.85	0.67
0.91123	1.85	0.68
0.91439	1.85	0.68
0.91754	1.84	0.69
0.92070	1.84	0.70
0.92385	1.84	0.71
0.92701	1.83	0.72
0.93016	1.83	0.73
0.93331	1.83	0.74
0.93646	1.83	0.75
0.93961	1.82	0.76
0.94276	1.82	0.77
0.94591	1.82	0.78
0.94906	1.82	0.79
0.95220	1.82	0.80
0.95535	1.82	0.82
0.95850	1.82	0.83
0.96164	1.82	0.84
0.96479	1.82	0.85
0.96793	1.82	0.86
0.97107	1.82	0.87
0.97421	1.83	0.89
0.97735	1.83	0.90
0.98049	1.83	0.91
0.98363	1.84	0.92
0.98677	1.84	0.93
0.98991	1.84	0.94
0.99304	1.85	0.96
0.99618	1.85	0.97
0.99931	1.85	0.98
1.01654	1.87	1.06
1.02335	1.89	1.10
1.03016	1.91	1.14
1.03697	1.96	1.19
1.04379	2.03	1.21
1.05061	2.10	1.20
1.05743	2.15	1.15
1.06425	2.15	1.09
1.07107	2.12	1.06
1.07789	2.07	1.05
1.08471	2.02	1.08
1.09154	1.97	1.13
1.09837	1.94	1.21
1.10520	1.92	1.31
1.11203	1.94	1.43
1.11886	2.01	1.57
1.12569	2.12	1.69
1.13252	2.29	1.78
1.13936	2.49	1.80
1.14620	2.68	1.75
1.15303	2.83	1.63
1.15987	2.91	1.50
1.16671	2.93	1.38
1.17356	2.91	1.29
1.18040	2.89	1.26
1.18725	2.90	1.27
1.19409	2.96	1.27
1.20094	3.05	1.22
1.20779	3.11	1.11
1.21464	3.12	0.98
1.22149	3.07	0.89
1.22835	3.01	0.82
1.23520	2.94	0.80
1.24206	2.88	0.79
1.24891	2.83	0.82
1.25577	2.80	0.86
1.26263	2.79	0.91
1.26950	2.81	0.97
1.27636	2.87	1.02
1.28322	2.95	1.05
1.29009	3.04	1.04
1.29696	3.13	1.00
1.30383	3.21	0.93
1.31070	3.25	0.84
1.31757	3.28	0.75
1.32444	3.28	0.67
1.33132	3.27	0.60
1.33819	3.25	0.53
1.34507	3.22	0.48
1.35195	3.19	0.43
1.35883	3.16	0.39
1.36571	3.13	0.36
1.37259	3.10	0.33
1.37948	3.08	0.31
1.38636	3.05	0.29
1.39325	3.03	0.27
1.40014	3.00	0.26
1.40703	2.98	0.24
1.41392	2.96	0.23
1.42081	2.94	0.22
1.42771	2.92	0.21
1.43460	2.90	0.20
1.44150	2.88	0.19
1.44840	2.87	0.19
1.45530	2.85	0.18
1.46220	2.84	0.17
1.46910	2.82	0.17
1.47600	2.81	0.16
1.48291	2.79	0.16
1.48981	2.78	0.15
1.49672	2.77	0.15
1.50363	2.76	0.15
1.51054	2.75	0.14
1.51745	2.73	0.14
1.52437	2.72	0.14
1.53128	2.71	0.13
1.53820	2.70	0.13
1.54512	2.69	0.13
1.55204	2.68	0.12
1.55896	2.67	0.12
1.56588	2.67	0.12
1.57280	2.66	0.12
1.57973	2.65	0.12
1.58665	2.64	0.11
1.59358	2.63	0.11
1.60051	2.62	0.11
1.60744	2.62	0.11
1.61437	2.61	0.11
1.62130	2.60	0.11
1.62824	2.59	0.10
1.63518	2.59	0.10
1.64211	2.58	0.10
1.64905	2.57	0.10
1.65599	2.57	0.10
1.66293	2.56	0.10
1.66988	2.55	0.10
1.67682	2.55	0.09
1.68377	2.54	0.09
