Material: main / C / Song-Arc
Optical constants. B. Song, F. Liu, H. Wang, J. Miao, Y. Chen, P. Kumar, H. Zhang, X. Liu, H. Gu, E. A. Stach, X. Liang, S. Liu, Z. Fakhraai, D. Jariwala. Giant gate-tunability of complex refractive index in semiconducting carbon nanotubes, ACS Photonics 7, 2896-2905 (2020)(see Supporting information for details)
Comments: Carbon nanotubes. Arc discharge grown semiconducting single wall carbon nanotube (s-SWCNT) film on Si/SiO2 substrate.
Specs: {"n_absolute": true, "wavelength_vacuum": true, "substrate": "Si/SiO2"}
wavelength (um)	n	k
0.37096	1.46	0.73
0.37412	1.55	0.74
0.37729	1.64	0.72
0.38045	1.72	0.69
0.38362	1.79	0.65
0.38679	1.84	0.60
0.38995	1.89	0.55
0.39312	1.92	0.49
0.39629	1.94	0.43
0.39946	1.95	0.38
0.40262	1.95	0.32
0.40579	1.94	0.27
0.40896	1.93	0.23
0.41213	1.91	0.19
0.41530	1.89	0.15
0.41848	1.86	0.13
0.42165	1.84	0.10
0.42482	1.81	0.09
0.42799	1.78	0.08
0.43117	1.76	0.07
0.43434	1.74	0.06
0.43751	1.71	0.06
0.44069	1.69	0.07
0.44386	1.68	0.07
0.44704	1.66	0.07
0.45022	1.65	0.08
0.45339	1.64	0.09
0.45657	1.63	0.10
0.45975	1.62	0.11
0.46292	1.62	0.12
0.46610	1.61	0.13
0.46928	1.61	0.13
0.47246	1.61	0.14
0.47564	1.62	0.15
0.47882	1.62	0.15
0.48200	1.62	0.15
0.48518	1.63	0.16
0.48836	1.63	0.16
0.49154	1.64	0.16
0.49472	1.64	0.16
0.49790	1.64	0.15
0.50108	1.65	0.15
0.50426	1.65	0.15
0.50744	1.65	0.14
0.51063	1.65	0.14
0.51381	1.65	0.13
0.51699	1.65	0.12
0.52018	1.65	0.12
0.52336	1.65	0.11
0.52654	1.65	0.11
0.52973	1.65	0.10
0.53291	1.64	0.10
0.53609	1.64	0.09
0.53928	1.64	0.09
0.54246	1.63	0.08
0.54565	1.63	0.08
0.54883	1.62	0.07
0.55202	1.61	0.07
0.55520	1.61	0.07
0.55839	1.60	0.07
0.56158	1.60	0.06
0.56476	1.59	0.06
0.56795	1.59	0.06
0.57113	1.58	0.06
0.57432	1.57	0.06
0.57751	1.57	0.06
0.58069	1.56	0.06
0.58388	1.55	0.06
0.58707	1.55	0.06
0.59025	1.54	0.06
0.59344	1.54	0.06
0.59663	1.53	0.06
0.59981	1.53	0.06
0.60300	1.52	0.06
0.60619	1.52	0.07
0.60938	1.51	0.07
0.61256	1.51	0.07
0.61575	1.50	0.07
0.61894	1.50	0.07
0.62213	1.49	0.07
0.62531	1.49	0.08
0.62850	1.48	0.08
0.63169	1.48	0.08
0.63487	1.47	0.08
0.63806	1.47	0.09
0.64125	1.46	0.09
0.64444	1.46	0.09
0.64762	1.45	0.10
0.65081	1.45	0.10
0.65400	1.44	0.10
0.65718	1.44	0.11
0.66037	1.44	0.11
0.66356	1.43	0.11
0.66674	1.43	0.12
0.66993	1.42	0.12
0.67312	1.42	0.13
0.67630	1.42	0.13
0.67949	1.41	0.13
0.68267	1.41	0.14
0.68586	1.40	0.14
0.68905	1.40	0.15
0.69223	1.40	0.15
0.69542	1.39	0.16
0.69860	1.39	0.16
0.70179	1.39	0.17
0.70497	1.39	0.17
0.70816	1.38	0.18
0.71134	1.38	0.19
0.71453	1.38	0.19
0.71771	1.38	0.20
0.72089	1.37	0.20
0.72408	1.37	0.21
0.72726	1.37	0.22
0.73044	1.37	0.22
0.73363	1.37	0.23
0.73681	1.37	0.23
0.73999	1.37	0.24
0.74317	1.37	0.25
0.74636	1.37	0.25
0.74954	1.37	0.26
0.75272	1.37	0.27
0.75590	1.37	0.27
0.75908	1.37	0.28
0.76226	1.37	0.28
0.76544	1.37	0.29
0.76862	1.37	0.30
0.77180	1.37	0.30
0.77498	1.37	0.31
0.77816	1.37	0.31
0.78133	1.38	0.32
0.78451	1.38	0.32
0.78769	1.38	0.33
0.79087	1.38	0.33
0.79404	1.39	0.34
0.79722	1.39	0.34
0.80040	1.39	0.35
0.80357	1.39	0.35
0.80675	1.40	0.35
0.80992	1.40	0.36
0.81309	1.40	0.36
0.81627	1.40	0.37
0.81944	1.41	0.37
0.82261	1.41	0.37
0.82579	1.41	0.37
0.82896	1.41	0.38
0.83213	1.42	0.38
0.83530	1.42	0.38
0.83847	1.42	0.39
0.84164	1.42	0.39
0.84481	1.42	0.39
0.84798	1.42	0.39
0.85115	1.43	0.40
0.85431	1.43	0.40
0.85748	1.43	0.40
0.86065	1.43	0.41
0.86381	1.43	0.41
0.86698	1.43	0.41
0.87014	1.43	0.41
0.87331	1.43	0.42
0.87647	1.44	0.42
0.87964	1.44	0.42
0.88280	1.44	0.43
0.88596	1.44	0.43
0.88912	1.44	0.43
0.89228	1.44	0.44
0.89544	1.44	0.44
0.89860	1.44	0.45
0.90176	1.44	0.45
0.90492	1.45	0.46
0.90808	1.45	0.46
0.91123	1.45	0.47
0.91439	1.45	0.47
0.91754	1.45	0.48
0.92070	1.45	0.48
0.92385	1.46	0.49
0.92701	1.46	0.49
0.93016	1.46	0.50
0.93331	1.47	0.50
0.93646	1.47	0.51
0.93961	1.47	0.52
0.94276	1.48	0.52
0.94591	1.48	0.53
0.94906	1.49	0.53
0.95220	1.49	0.54
0.95535	1.50	0.54
0.95850	1.51	0.55
0.96164	1.51	0.55
0.96479	1.52	0.56
0.96793	1.53	0.56
0.97107	1.53	0.57
0.97421	1.54	0.57
0.97735	1.55	0.58
0.98049	1.56	0.58
0.98363	1.56	0.58
0.98677	1.57	0.58
0.98991	1.58	0.59
0.99304	1.59	0.59
0.99618	1.60	0.59
0.99931	1.61	0.59
1.01654	1.66	0.59
1.02335	1.68	0.58
1.03016	1.70	0.58
1.03697	1.71	0.57
1.04379	1.73	0.56
1.05061	1.74	0.55
1.05743	1.76	0.53
1.06425	1.77	0.52
1.07107	1.78	0.51
1.07789	1.79	0.49
1.08471	1.79	0.48
1.09154	1.80	0.47
1.09837	1.80	0.45
1.10520	1.80	0.44
1.11203	1.80	0.43
1.11886	1.80	0.41
1.12569	1.80	0.40
1.13252	1.80	0.39
1.13936	1.80	0.38
1.14620	1.80	0.37
1.15303	1.80	0.36
1.15987	1.79	0.35
1.16671	1.79	0.34
1.17356	1.78	0.33
1.18040	1.78	0.33
1.18725	1.77	0.32
1.19409	1.77	0.31
1.20094	1.76	0.31
1.20779	1.76	0.30
1.21464	1.75	0.30
1.22149	1.75	0.29
1.22835	1.74	0.29
1.23520	1.73	0.29
1.24206	1.73	0.28
1.24891	1.72	0.28
1.25577	1.72	0.28
1.26263	1.71	0.28
1.26950	1.70	0.27
1.27636	1.70	0.27
1.28322	1.69	0.27
1.29009	1.68	0.27
1.29696	1.68	0.27
1.30383	1.67	0.27
1.31070	1.67	0.27
1.31757	1.66	0.27
1.32444	1.65	0.27
1.33132	1.65	0.27
1.33819	1.64	0.27
1.34507	1.64	0.27
1.35195	1.63	0.27
1.35883	1.63	0.28
1.36571	1.62	0.28
1.37259	1.61	0.28
1.37948	1.61	0.28
1.38636	1.60	0.29
1.39325	1.60	0.29
1.40014	1.59	0.29
1.40703	1.59	0.29
1.41392	1.58	0.30
1.42081	1.58	0.30
1.42771	1.57	0.31
1.43460	1.57	0.31
1.44150	1.56	0.31
1.44840	1.56	0.32
1.45530	1.55	0.32
1.46220	1.55	0.33
1.46910	1.54	0.33
1.47600	1.54	0.34
1.48291	1.54	0.35
1.48981	1.53	0.35
1.49672	1.53	0.36
1.50363	1.53	0.36
1.51054	1.52	0.37
1.51745	1.52	0.38
1.52437	1.52	0.38
1.53128	1.51	0.39
1.53820	1.51	0.40
1.54512	1.51	0.41
1.55204	1.51	0.41
1.55896	1.51	0.42
1.56588	1.51	0.43
1.57280	1.50	0.44
1.57973	1.50	0.44
1.58665	1.50	0.45
1.59358	1.50	0.46
1.60051	1.50	0.47
1.60744	1.50	0.48
1.61437	1.51	0.49
1.62130	1.51	0.49
1.62824	1.51	0.50
1.63518	1.51	0.51
1.64211	1.51	0.52
1.64905	1.52	0.53
1.65599	1.52	0.54
1.66293	1.52	0.54
1.66988	1.53	0.55
1.67682	1.53	0.56
1.68377	1.53	0.57
