Material: inorganic / WTe2 / Munkhbat-beta
Optical constants. B. Munkhbat, P. Wrobel, T. J. Antosiewicz, T. O. Shegai. Optical constants of several multilayer transition metal dichalcogenides spectroscopic ellipsometry in the 300–1700 nm range: High index, anisotropy, and hyperbolicity, ACS Photonics 9, 2398–2407 (2022) (Numerical data kindly provided by Tomasz Antosiewicz)
Comments: Multilayer flakes. nβ, kβ. Room temperature.
Specs: {"n_absolute": true, "wavelength_vacuum": true}
wavelength (um)	n	k
3.000000e-01	2.072856e+00	1.980247e+00
3.030000e-01	2.078169e+00	2.002711e+00
3.060000e-01	2.087482e+00	2.029763e+00
3.090000e-01	2.102705e+00	2.060402e+00
3.120000e-01	2.126304e+00	2.092324e+00
3.150000e-01	2.156974e+00	2.119746e+00
3.180000e-01	2.190685e+00	2.142892e+00
3.210000e-01	2.226467e+00	2.162453e+00
3.240000e-01	2.263756e+00	2.178715e+00
3.270000e-01	2.302119e+00	2.191833e+00
3.300000e-01	2.341181e+00	2.201908e+00
3.330000e-01	2.380597e+00	2.209022e+00
3.360000e-01	2.420039e+00	2.213266e+00
3.390000e-01	2.459193e+00	2.214745e+00
3.420000e-01	2.497765e+00	2.213591e+00
3.450000e-01	2.535477e+00	2.209963e+00
3.480000e-01	2.572084e+00	2.204049e+00
3.510000e-01	2.607370e+00	2.196063e+00
3.540000e-01	2.641158e+00	2.186239e+00
3.570000e-01	2.673311e+00	2.174826e+00
3.600000e-01	2.703734e+00	2.162078e+00
3.630000e-01	2.732374e+00	2.148251e+00
3.660000e-01	2.759219e+00	2.133589e+00
3.690000e-01	2.784292e+00	2.118323e+00
3.720000e-01	2.807644e+00	2.102665e+00
3.750000e-01	2.829353e+00	2.086801e+00
3.780000e-01	2.849516e+00	2.070894e+00
3.810000e-01	2.868242e+00	2.055079e+00
3.840000e-01	2.885646e+00	2.039465e+00
3.870000e-01	2.901849e+00	2.024138e+00
3.900000e-01	2.916968e+00	2.009160e+00
3.930000e-01	2.931118e+00	1.994574e+00
3.960000e-01	2.944405e+00	1.980408e+00
3.990000e-01	2.956929e+00	1.966671e+00
4.020000e-01	2.968781e+00	1.953365e+00
4.050000e-01	2.980040e+00	1.940481e+00
4.080000e-01	2.990780e+00	1.928002e+00
4.110000e-01	3.001061e+00	1.915908e+00
4.140000e-01	3.010938e+00	1.904173e+00
4.170000e-01	3.020455e+00	1.892772e+00
4.200000e-01	3.029650e+00	1.881676e+00
4.230000e-01	3.038555e+00	1.870857e+00
4.260000e-01	3.047194e+00	1.860290e+00
4.290000e-01	3.055588e+00	1.849946e+00
4.320000e-01	3.063753e+00	1.839802e+00
4.350000e-01	3.071699e+00	1.829835e+00
4.380000e-01	3.079436e+00	1.820023e+00
4.410000e-01	3.086969e+00	1.810347e+00
4.440000e-01	3.094300e+00	1.800790e+00
4.470000e-01	3.101433e+00	1.791337e+00
4.500000e-01	3.108366e+00	1.781974e+00
4.530000e-01	3.115097e+00	1.772690e+00
4.560000e-01	3.121626e+00	1.763475e+00
4.590000e-01	3.127948e+00	1.754321e+00
4.620000e-01	3.134060e+00	1.745221e+00
4.650000e-01	3.139958e+00	1.736170e+00
4.680000e-01	3.145639e+00	1.727164e+00
4.710000e-01	3.151098e+00	1.718200e+00
4.740000e-01	3.156330e+00	1.709277e+00
4.770000e-01	3.161333e+00	1.700394e+00
4.800000e-01	3.166101e+00	1.691550e+00
4.830000e-01	3.170632e+00	1.682748e+00
4.860000e-01	3.174921e+00	1.673988e+00
4.890000e-01	3.178966e+00	1.665274e+00
4.920000e-01	3.182764e+00	1.656607e+00
4.950000e-01	3.186313e+00	1.647992e+00
4.980000e-01	3.189609e+00	1.639432e+00
5.010000e-01	3.192651e+00	1.630931e+00
5.040000e-01	3.195438e+00	1.622494e+00
5.070000e-01	3.197969e+00	1.614126e+00
5.100000e-01	3.200242e+00	1.605831e+00
5.130000e-01	3.202256e+00	1.597615e+00
5.160000e-01	3.204013e+00	1.589484e+00
5.190000e-01	3.205511e+00	1.581442e+00
5.220000e-01	3.206751e+00	1.573496e+00
5.250000e-01	3.207734e+00	1.565651e+00
5.280000e-01	3.208460e+00	1.557913e+00
5.310000e-01	3.208931e+00	1.550288e+00
5.340000e-01	3.209148e+00	1.542782e+00
5.370000e-01	3.209113e+00	1.535401e+00
5.400000e-01	3.208828e+00	1.528150e+00
5.430000e-01	3.208294e+00	1.521036e+00
5.460000e-01	3.207514e+00	1.514065e+00
5.490000e-01	3.206491e+00	1.507242e+00
5.520000e-01	3.205228e+00	1.500573e+00
5.550000e-01	3.203726e+00	1.494065e+00
5.580000e-01	3.201991e+00	1.487722e+00
5.610000e-01	3.200024e+00	1.481552e+00
5.640000e-01	3.197829e+00	1.475559e+00
5.670000e-01	3.195410e+00	1.469749e+00
5.700000e-01	3.192771e+00	1.464128e+00
5.730000e-01	3.189915e+00	1.458702e+00
5.760000e-01	3.186847e+00	1.453477e+00
5.790000e-01	3.183572e+00	1.448457e+00
5.820000e-01	3.180093e+00	1.443648e+00
5.850000e-01	3.176415e+00	1.439057e+00
5.880000e-01	3.172544e+00	1.434688e+00
5.910000e-01	3.168483e+00	1.430546e+00
5.940000e-01	3.164239e+00	1.426638e+00
5.970000e-01	3.159816e+00	1.422968e+00
6.000000e-01	3.155220e+00	1.419541e+00
6.030000e-01	3.150457e+00	1.416364e+00
6.060000e-01	3.145533e+00	1.413441e+00
6.090000e-01	3.140453e+00	1.410777e+00
6.120000e-01	3.135225e+00	1.408377e+00
6.150000e-01	3.129853e+00	1.406247e+00
6.180000e-01	3.124346e+00	1.404391e+00
6.210000e-01	3.118710e+00	1.402814e+00
6.240000e-01	3.112953e+00	1.401522e+00
6.270000e-01	3.107081e+00	1.400518e+00
6.300000e-01	3.101102e+00	1.399807e+00
6.330000e-01	3.095025e+00	1.399394e+00
6.360000e-01	3.088857e+00	1.399284e+00
6.390000e-01	3.082607e+00	1.399480e+00
6.420000e-01	3.076284e+00	1.399987e+00
6.450000e-01	3.069897e+00	1.400808e+00
6.480000e-01	3.063456e+00	1.401948e+00
6.510000e-01	3.056969e+00	1.403410e+00
6.540000e-01	3.050447e+00	1.405197e+00
6.570000e-01	3.043900e+00	1.407312e+00
6.600000e-01	3.037340e+00	1.409758e+00
6.630000e-01	3.030776e+00	1.412538e+00
6.660000e-01	3.024221e+00	1.415654e+00
6.690000e-01	3.017685e+00	1.419107e+00
6.720000e-01	3.011182e+00	1.422900e+00
6.750000e-01	3.004723e+00	1.427032e+00
6.780000e-01	2.998321e+00	1.431505e+00
6.810000e-01	2.991989e+00	1.436318e+00
6.840000e-01	2.985740e+00	1.441471e+00
6.870000e-01	2.979587e+00	1.446962e+00
6.900000e-01	2.973544e+00	1.452791e+00
6.930000e-01	2.967626e+00	1.458954e+00
6.960000e-01	2.961845e+00	1.465449e+00
6.990000e-01	2.956217e+00	1.472272e+00
7.020000e-01	2.950756e+00	1.479418e+00
7.050000e-01	2.945476e+00	1.486882e+00
7.080000e-01	2.940391e+00	1.494657e+00
7.110000e-01	2.935517e+00	1.502737e+00
7.140000e-01	2.930866e+00	1.511113e+00
7.170000e-01	2.926453e+00	1.519778e+00
7.200000e-01	2.922292e+00	1.528720e+00
7.230000e-01	2.918397e+00	1.537930e+00
7.260000e-01	2.914779e+00	1.547395e+00
7.290000e-01	2.911453e+00	1.557103e+00
7.320000e-01	2.908430e+00	1.567042e+00
7.350000e-01	2.905721e+00	1.577195e+00
7.380000e-01	2.903337e+00	1.587549e+00
7.410000e-01	2.901287e+00	1.598087e+00
7.440000e-01	2.899581e+00	1.608793e+00
7.470000e-01	2.898227e+00	1.619648e+00
7.500000e-01	2.897231e+00	1.630635e+00
7.530000e-01	2.896599e+00	1.641735e+00
7.560000e-01	2.896336e+00	1.652929e+00
7.590000e-01	2.896444e+00	1.664197e+00
7.620000e-01	2.896926e+00	1.675519e+00
7.650000e-01	2.897782e+00	1.686875e+00
7.680000e-01	2.899011e+00	1.698245e+00
7.710000e-01	2.900611e+00	1.709609e+00
7.740000e-01	2.902578e+00	1.720947e+00
7.770000e-01	2.904907e+00	1.732239e+00
7.800000e-01	2.907592e+00	1.743467e+00
7.830000e-01	2.910625e+00	1.754612e+00
7.860000e-01	2.913995e+00	1.765656e+00
7.890000e-01	2.917694e+00	1.776583e+00
7.920000e-01	2.921709e+00	1.787376e+00
7.950000e-01	2.926027e+00	1.798021e+00
7.980000e-01	2.930635e+00	1.808504e+00
8.010000e-01	2.935519e+00	1.818813e+00
8.040000e-01	2.940663e+00	1.828937e+00
8.070000e-01	2.946052e+00	1.838866e+00
8.100000e-01	2.951670e+00	1.848593e+00
8.130000e-01	2.957499e+00	1.858112e+00
8.160000e-01	2.963525e+00	1.867416e+00
8.190000e-01	2.969731e+00	1.876504e+00
8.220000e-01	2.976101e+00	1.885372e+00
8.250000e-01	2.982619e+00	1.894021e+00
8.280000e-01	2.989272e+00	1.902451e+00
8.310000e-01	2.996046e+00	1.910663e+00
8.340000e-01	3.002928e+00	1.918659e+00
8.370000e-01	3.009903e+00	1.926444e+00
8.400000e-01	3.016959e+00	1.934023e+00
8.430000e-01	3.024088e+00	1.941402e+00
8.460000e-01	3.031280e+00	1.948587e+00
8.490000e-01	3.038529e+00	1.955587e+00
8.520000e-01	3.045828e+00	1.962406e+00
8.550000e-01	3.053175e+00	1.969053e+00
8.580000e-01	3.060565e+00	1.975533e+00
8.610000e-01	3.067997e+00	1.981852e+00
8.640000e-01	3.075471e+00	1.988014e+00
8.670000e-01	3.082987e+00	1.994024e+00
8.700000e-01	3.090547e+00	1.999883e+00
8.730000e-01	3.098152e+00	2.005593e+00
8.760000e-01	3.105805e+00	2.011154e+00
8.790000e-01	3.113508e+00	2.016563e+00
8.820000e-01	3.121262e+00	2.021817e+00
8.850000e-01	3.129069e+00	2.026912e+00
8.880000e-01	3.136930e+00	2.031841e+00
8.910000e-01	3.144843e+00	2.036596e+00
8.940000e-01	3.152805e+00	2.041168e+00
8.970000e-01	3.160814e+00	2.045548e+00
9.000000e-01	3.168862e+00	2.049726e+00
9.030000e-01	3.176942e+00	2.053691e+00
9.060000e-01	3.185042e+00	2.057432e+00
9.090000e-01	3.193149e+00	2.060942e+00
9.120000e-01	3.201249e+00	2.064211e+00
9.150000e-01	3.209323e+00	2.067232e+00
9.180000e-01	3.217353e+00	2.070001e+00
9.210000e-01	3.225316e+00	2.072516e+00
9.240000e-01	3.233192e+00	2.074777e+00
9.270000e-01	3.240956e+00	2.076787e+00
9.300000e-01	3.248586e+00	2.078554e+00
9.330000e-01	3.256058e+00	2.080086e+00
9.360000e-01	3.263351e+00	2.081399e+00
9.390000e-01	3.270444e+00	2.082508e+00
9.420000e-01	3.277317e+00	2.083432e+00
9.450000e-01	3.283955e+00	2.084193e+00
9.480000e-01	3.290343e+00	2.084816e+00
9.510000e-01	3.296472e+00	2.085326e+00
9.540000e-01	3.302334e+00	2.085751e+00
9.570000e-01	3.307926e+00	2.086118e+00
9.600000e-01	3.313247e+00	2.086456e+00
9.630000e-01	3.318301e+00	2.086791e+00
9.660000e-01	3.323094e+00	2.087150e+00
9.690000e-01	3.327636e+00	2.087559e+00
9.720000e-01	3.331940e+00	2.088041e+00
9.750000e-01	3.336021e+00	2.088618e+00
9.780000e-01	3.339895e+00	2.089308e+00
9.810000e-01	3.343582e+00	2.090128e+00
9.840000e-01	3.347101e+00	2.091093e+00
9.870000e-01	3.350474e+00	2.092212e+00
9.900000e-01	3.353721e+00	2.093496e+00
9.930000e-01	3.356866e+00	2.094949e+00
9.960000e-01	3.359929e+00	2.096576e+00
9.990000e-01	3.362931e+00	2.098376e+00
1.005000e+00	3.368833e+00	2.102491e+00
1.012500e+00	3.376212e+00	2.108546e+00
1.020000e+00	3.383820e+00	2.115495e+00
1.027500e+00	3.391847e+00	2.123167e+00
1.035000e+00	3.400422e+00	2.131371e+00
1.042500e+00	3.409613e+00	2.139904e+00
1.050000e+00	3.419434e+00	2.148576e+00
1.057500e+00	3.429855e+00	2.157213e+00
1.065000e+00	3.440809e+00	2.165668e+00
1.072500e+00	3.452204e+00	2.173828e+00
1.080000e+00	3.463931e+00	2.181613e+00
1.087500e+00	3.475876e+00	2.188975e+00
1.095000e+00	3.487927e+00	2.195900e+00
1.102500e+00	3.499981e+00	2.202398e+00
1.110000e+00	3.511947e+00	2.208503e+00
1.117500e+00	3.523751e+00	2.214267e+00
1.125000e+00	3.535340e+00	2.219751e+00
1.132500e+00	3.546676e+00	2.225023e+00
1.140000e+00	3.557743e+00	2.230153e+00
1.147500e+00	3.568539e+00	2.235208e+00
1.155000e+00	3.579078e+00	2.240249e+00
1.162500e+00	3.589385e+00	2.245328e+00
1.170000e+00	3.599493e+00	2.250490e+00
1.177500e+00	3.609440e+00	2.255767e+00
1.185000e+00	3.619270e+00	2.261182e+00
1.192500e+00	3.629025e+00	2.266748e+00
1.200000e+00	3.638747e+00	2.272470e+00
1.207500e+00	3.648476e+00	2.278344e+00
1.215000e+00	3.658248e+00	2.284359e+00
1.222500e+00	3.668093e+00	2.290499e+00
1.230000e+00	3.678037e+00	2.296746e+00
1.237500e+00	3.688102e+00	2.303077e+00
1.245000e+00	3.698302e+00	2.309470e+00
1.252500e+00	3.708649e+00	2.315899e+00
1.260000e+00	3.719149e+00	2.322342e+00
1.267500e+00	3.729804e+00	2.328775e+00
1.275000e+00	3.740615e+00	2.335179e+00
1.282500e+00	3.751576e+00	2.341535e+00
1.290000e+00	3.762683e+00	2.347826e+00
1.297500e+00	3.773930e+00	2.354038e+00
1.305000e+00	3.785307e+00	2.360158e+00
1.312500e+00	3.796808e+00	2.366179e+00
1.320000e+00	3.808424e+00	2.372091e+00
1.327500e+00	3.820151e+00	2.377888e+00
1.335000e+00	3.831982e+00	2.383566e+00
1.342500e+00	3.843919e+00	2.389119e+00
1.350000e+00	3.855971e+00	2.394524e+00
1.357500e+00	3.868101e+00	2.399746e+00
1.365000e+00	3.880278e+00	2.404799e+00
1.372500e+00	3.892486e+00	2.409692e+00
1.380000e+00	3.904717e+00	2.414436e+00
1.387500e+00	3.916964e+00	2.419039e+00
1.395000e+00	3.929224e+00	2.423508e+00
1.402500e+00	3.941493e+00	2.427850e+00
1.410000e+00	3.953771e+00	2.432071e+00
1.417500e+00	3.966057e+00	2.436175e+00
1.425000e+00	3.978351e+00	2.440168e+00
1.432500e+00	3.990655e+00	2.444053e+00
1.440000e+00	4.002971e+00	2.447833e+00
1.447500e+00	4.015300e+00	2.451510e+00
1.455000e+00	4.027646e+00	2.455085e+00
1.462500e+00	4.040010e+00	2.458559e+00
1.470000e+00	4.052395e+00	2.461931e+00
1.477500e+00	4.064804e+00	2.465201e+00
1.485000e+00	4.077238e+00	2.468367e+00
1.492500e+00	4.089700e+00	2.471427e+00
1.500000e+00	4.102192e+00	2.474380e+00
1.507500e+00	4.114714e+00	2.477222e+00
1.515000e+00	4.127268e+00	2.479949e+00
1.522500e+00	4.139855e+00	2.482560e+00
1.530000e+00	4.152474e+00	2.485049e+00
1.537500e+00	4.165126e+00	2.487414e+00
1.545000e+00	4.177809e+00	2.489650e+00
1.552500e+00	4.190524e+00	2.491753e+00
1.560000e+00	4.203267e+00	2.493720e+00
1.567500e+00	4.216039e+00	2.495546e+00
1.575000e+00	4.228836e+00	2.497228e+00
1.582500e+00	4.241656e+00	2.498762e+00
1.590000e+00	4.254496e+00	2.500144e+00
1.597500e+00	4.267353e+00	2.501370e+00
1.605000e+00	4.280223e+00	2.502438e+00
1.612500e+00	4.293103e+00	2.503345e+00
1.620000e+00	4.305988e+00	2.504087e+00
1.627500e+00	4.318875e+00	2.504663e+00
1.635000e+00	4.331760e+00	2.505069e+00
1.642500e+00	4.344636e+00	2.505305e+00
1.650000e+00	4.357501e+00	2.505367e+00
1.657500e+00	4.370349e+00	2.505255e+00
1.665000e+00	4.383175e+00	2.504968e+00
1.672500e+00	4.395974e+00	2.504504e+00
1.680000e+00	4.408742e+00	2.503863e+00
1.687500e+00	4.421473e+00	2.503044e+00
