Material: inorganic / WTe2 / Munkhbat-alpha
Optical constants. B. Munkhbat, P. Wrobel, T. J. Antosiewicz, T. O. Shegai. Optical constants of several multilayer transition metal dichalcogenides spectroscopic ellipsometry in the 300–1700 nm range: High index, anisotropy, and hyperbolicity, ACS Photonics 9, 2398–2407 (2022) (Numerical data kindly provided by Tomasz Antosiewicz)
Comments: Multilayer flakes. nα, kα. Room temperature.
Specs: {"n_absolute": true, "wavelength_vacuum": true}
wavelength (um)	n	k
3.000000e-01	2.310960e+00	2.051350e+00
3.030000e-01	2.329452e+00	2.053818e+00
3.060000e-01	2.347423e+00	2.057617e+00
3.090000e-01	2.365229e+00	2.062948e+00
3.120000e-01	2.383300e+00	2.069941e+00
3.150000e-01	2.402123e+00	2.078632e+00
3.180000e-01	2.422224e+00	2.088947e+00
3.210000e-01	2.444144e+00	2.100690e+00
3.240000e-01	2.468415e+00	2.113538e+00
3.270000e-01	2.495554e+00	2.127047e+00
3.300000e-01	2.526079e+00	2.140645e+00
3.330000e-01	2.560601e+00	2.153590e+00
3.360000e-01	2.600327e+00	2.164508e+00
3.390000e-01	2.644037e+00	2.169040e+00
3.420000e-01	2.687746e+00	2.167578e+00
3.450000e-01	2.730197e+00	2.161302e+00
3.480000e-01	2.770658e+00	2.151109e+00
3.510000e-01	2.808680e+00	2.137802e+00
3.540000e-01	2.844016e+00	2.122114e+00
3.570000e-01	2.876584e+00	2.104709e+00
3.600000e-01	2.906426e+00	2.086166e+00
3.630000e-01	2.933682e+00	2.066971e+00
3.660000e-01	2.958553e+00	2.047515e+00
3.690000e-01	2.981274e+00	2.028101e+00
3.720000e-01	3.002095e+00	2.008945e+00
3.750000e-01	3.021261e+00	1.990193e+00
3.780000e-01	3.039000e+00	1.971932e+00
3.810000e-01	3.055517e+00	1.954204e+00
3.840000e-01	3.070988e+00	1.937014e+00
3.870000e-01	3.085561e+00	1.920347e+00
3.900000e-01	3.099358e+00	1.904170e+00
3.930000e-01	3.112474e+00	1.888442e+00
3.960000e-01	3.124982e+00	1.873120e+00
3.990000e-01	3.136939e+00	1.858161e+00
4.020000e-01	3.148383e+00	1.843527e+00
4.050000e-01	3.159342e+00	1.829182e+00
4.080000e-01	3.169835e+00	1.815099e+00
4.110000e-01	3.179873e+00	1.801255e+00
4.140000e-01	3.189461e+00	1.787635e+00
4.170000e-01	3.198603e+00	1.774229e+00
4.200000e-01	3.207301e+00	1.761033e+00
4.230000e-01	3.215556e+00	1.748047e+00
4.260000e-01	3.223369e+00	1.735277e+00
4.290000e-01	3.230742e+00	1.722732e+00
4.320000e-01	3.237681e+00	1.710423e+00
4.350000e-01	3.244192e+00	1.698365e+00
4.380000e-01	3.250283e+00	1.686573e+00
4.410000e-01	3.255965e+00	1.675064e+00
4.440000e-01	3.261254e+00	1.663856e+00
4.470000e-01	3.266165e+00	1.652968e+00
4.500000e-01	3.270717e+00	1.642415e+00
4.530000e-01	3.274934e+00	1.632215e+00
4.560000e-01	3.278839e+00	1.622383e+00
4.590000e-01	3.282459e+00	1.612933e+00
4.620000e-01	3.285823e+00	1.603877e+00
4.650000e-01	3.288964e+00	1.595225e+00
4.680000e-01	3.291912e+00	1.586984e+00
4.710000e-01	3.294704e+00	1.579157e+00
4.740000e-01	3.297374e+00	1.571745e+00
4.770000e-01	3.299960e+00	1.564746e+00
4.800000e-01	3.302498e+00	1.558153e+00
4.830000e-01	3.305026e+00	1.551955e+00
4.860000e-01	3.307580e+00	1.546138e+00
4.890000e-01	3.310195e+00	1.540682e+00
4.920000e-01	3.312905e+00	1.535564e+00
4.950000e-01	3.315742e+00	1.530757e+00
4.980000e-01	3.318735e+00	1.526228e+00
5.010000e-01	3.321907e+00	1.521942e+00
5.040000e-01	3.325281e+00	1.517860e+00
5.070000e-01	3.328870e+00	1.513939e+00
5.100000e-01	3.332685e+00	1.510135e+00
5.130000e-01	3.336729e+00	1.506402e+00
5.160000e-01	3.340999e+00	1.502693e+00
5.190000e-01	3.345486e+00	1.498963e+00
5.220000e-01	3.350173e+00	1.495166e+00
5.250000e-01	3.355037e+00	1.491261e+00
5.280000e-01	3.360049e+00	1.487210e+00
5.310000e-01	3.365172e+00	1.482978e+00
5.340000e-01	3.370367e+00	1.478540e+00
5.370000e-01	3.375590e+00	1.473874e+00
5.400000e-01	3.380794e+00	1.468965e+00
5.430000e-01	3.385931e+00	1.463809e+00
5.460000e-01	3.390951e+00	1.458408e+00
5.490000e-01	3.395807e+00	1.452770e+00
5.520000e-01	3.400454e+00	1.446912e+00
5.550000e-01	3.404850e+00	1.440858e+00
5.580000e-01	3.408956e+00	1.434638e+00
5.610000e-01	3.412741e+00	1.428287e+00
5.640000e-01	3.416178e+00	1.421843e+00
5.670000e-01	3.419247e+00	1.415348e+00
5.700000e-01	3.421934e+00	1.408847e+00
5.730000e-01	3.424231e+00	1.402385e+00
5.760000e-01	3.426136e+00	1.396007e+00
5.790000e-01	3.427656e+00	1.389758e+00
5.820000e-01	3.428800e+00	1.383680e+00
5.850000e-01	3.429584e+00	1.377814e+00
5.880000e-01	3.430029e+00	1.372200e+00
5.910000e-01	3.430159e+00	1.366871e+00
5.940000e-01	3.430003e+00	1.361859e+00
5.970000e-01	3.429591e+00	1.357194e+00
6.000000e-01	3.428958e+00	1.352898e+00
6.030000e-01	3.428141e+00	1.348992e+00
6.060000e-01	3.427178e+00	1.345493e+00
6.090000e-01	3.426107e+00	1.342414e+00
6.120000e-01	3.424971e+00	1.339762e+00
6.150000e-01	3.423811e+00	1.337541e+00
6.180000e-01	3.422669e+00	1.335752e+00
6.210000e-01	3.421587e+00	1.334389e+00
6.240000e-01	3.420609e+00	1.333445e+00
6.270000e-01	3.419775e+00	1.332904e+00
6.300000e-01	3.419127e+00	1.332750e+00
6.330000e-01	3.418704e+00	1.332959e+00
6.360000e-01	3.418544e+00	1.333502e+00
6.390000e-01	3.418681e+00	1.334348e+00
6.420000e-01	3.419147e+00	1.335457e+00
6.450000e-01	3.419967e+00	1.336787e+00
6.480000e-01	3.421164e+00	1.338292e+00
6.510000e-01	3.422753e+00	1.339921e+00
6.540000e-01	3.424740e+00	1.341621e+00
6.570000e-01	3.427128e+00	1.343337e+00
6.600000e-01	3.429906e+00	1.345014e+00
6.630000e-01	3.433058e+00	1.346599e+00
6.660000e-01	3.436558e+00	1.348042e+00
6.690000e-01	3.440372e+00	1.349296e+00
6.720000e-01	3.444458e+00	1.350322e+00
6.750000e-01	3.448769e+00	1.351091e+00
6.780000e-01	3.453254e+00	1.351580e+00
6.810000e-01	3.457860e+00	1.351776e+00
6.840000e-01	3.462533e+00	1.351679e+00
6.870000e-01	3.467222e+00	1.351297e+00
6.900000e-01	3.471880e+00	1.350644e+00
6.930000e-01	3.476465e+00	1.349747e+00
6.960000e-01	3.480942e+00	1.348635e+00
6.990000e-01	3.485285e+00	1.347341e+00
7.020000e-01	3.489474e+00	1.345903e+00
7.050000e-01	3.493499e+00	1.344358e+00
7.080000e-01	3.497354e+00	1.342742e+00
7.110000e-01	3.501042e+00	1.341088e+00
7.140000e-01	3.504571e+00	1.339428e+00
7.170000e-01	3.507954e+00	1.337789e+00
7.200000e-01	3.511205e+00	1.336194e+00
7.230000e-01	3.514342e+00	1.334660e+00
7.260000e-01	3.517385e+00	1.333204e+00
7.290000e-01	3.520353e+00	1.331833e+00
7.320000e-01	3.523266e+00	1.330557e+00
7.350000e-01	3.526143e+00	1.329376e+00
7.380000e-01	3.529002e+00	1.328292e+00
7.410000e-01	3.531861e+00	1.327303e+00
7.440000e-01	3.534733e+00	1.326404e+00
7.470000e-01	3.537633e+00	1.325589e+00
7.500000e-01	3.540573e+00	1.324850e+00
7.530000e-01	3.543563e+00	1.324181e+00
7.560000e-01	3.546612e+00	1.323570e+00
7.590000e-01	3.549727e+00	1.323010e+00
7.620000e-01	3.552914e+00	1.322490e+00
7.650000e-01	3.556177e+00	1.322001e+00
7.680000e-01	3.559519e+00	1.321533e+00
7.710000e-01	3.562942e+00	1.321076e+00
7.740000e-01	3.566447e+00	1.320621e+00
7.770000e-01	3.570034e+00	1.320159e+00
7.800000e-01	3.573703e+00	1.319682e+00
7.830000e-01	3.577452e+00	1.319181e+00
7.860000e-01	3.581279e+00	1.318649e+00
7.890000e-01	3.585182e+00	1.318079e+00
7.920000e-01	3.589156e+00	1.317464e+00
7.950000e-01	3.593200e+00	1.316797e+00
7.980000e-01	3.597309e+00	1.316073e+00
8.010000e-01	3.601478e+00	1.315287e+00
8.040000e-01	3.605704e+00	1.314433e+00
8.070000e-01	3.609983e+00	1.313509e+00
8.100000e-01	3.614309e+00	1.312509e+00
8.130000e-01	3.618678e+00	1.311430e+00
8.160000e-01	3.623086e+00	1.310269e+00
8.190000e-01	3.627529e+00	1.309024e+00
8.220000e-01	3.632001e+00	1.307689e+00
8.250000e-01	3.636496e+00	1.306264e+00
8.280000e-01	3.641009e+00	1.304747e+00
8.310000e-01	3.645536e+00	1.303136e+00
8.340000e-01	3.650071e+00	1.301432e+00
8.370000e-01	3.654611e+00	1.299632e+00
8.400000e-01	3.659149e+00	1.297738e+00
8.430000e-01	3.663683e+00	1.295748e+00
8.460000e-01	3.668207e+00	1.293662e+00
8.490000e-01	3.672719e+00	1.291481e+00
8.520000e-01	3.677212e+00	1.289204e+00
8.550000e-01	3.681685e+00	1.286833e+00
8.580000e-01	3.686133e+00	1.284367e+00
8.610000e-01	3.690552e+00	1.281807e+00
8.640000e-01	3.694940e+00	1.279154e+00
8.670000e-01	3.699292e+00	1.276409e+00
8.700000e-01	3.703606e+00	1.273572e+00
8.730000e-01	3.707878e+00	1.270643e+00
8.760000e-01	3.712106e+00	1.267625e+00
8.790000e-01	3.716287e+00	1.264517e+00
8.820000e-01	3.720417e+00	1.261320e+00
8.850000e-01	3.724495e+00	1.258035e+00
8.880000e-01	3.728517e+00	1.254663e+00
8.910000e-01	3.732481e+00	1.251204e+00
8.940000e-01	3.736384e+00	1.247658e+00
8.970000e-01	3.740224e+00	1.244025e+00
9.000000e-01	3.743997e+00	1.240307e+00
9.030000e-01	3.747701e+00	1.236503e+00
9.060000e-01	3.751333e+00	1.232613e+00
9.090000e-01	3.754890e+00	1.228637e+00
9.120000e-01	3.758368e+00	1.224574e+00
9.150000e-01	3.761764e+00	1.220425e+00
9.180000e-01	3.765074e+00	1.216190e+00
9.210000e-01	3.768293e+00	1.211867e+00
9.240000e-01	3.771417e+00	1.207456e+00
9.270000e-01	3.774441e+00	1.202957e+00
9.300000e-01	3.777359e+00	1.198369e+00
9.330000e-01	3.780165e+00	1.193693e+00
9.360000e-01	3.782851e+00	1.188928e+00
9.390000e-01	3.785410e+00	1.184074e+00
9.420000e-01	3.787834e+00	1.179134e+00
9.450000e-01	3.790112e+00	1.174107e+00
9.480000e-01	3.792234e+00	1.168998e+00
9.510000e-01	3.794190e+00	1.163809e+00
9.540000e-01	3.795968e+00	1.158546e+00
9.570000e-01	3.797554e+00	1.153216e+00
9.600000e-01	3.798935e+00	1.147826e+00
9.630000e-01	3.800099e+00	1.142389e+00
9.660000e-01	3.801032e+00	1.136918e+00
9.690000e-01	3.801720e+00	1.131428e+00
9.720000e-01	3.802151e+00	1.125941e+00
9.750000e-01	3.802317e+00	1.120479e+00
9.780000e-01	3.802208e+00	1.115070e+00
9.810000e-01	3.801821e+00	1.109742e+00
9.840000e-01	3.801156e+00	1.104528e+00
9.870000e-01	3.800218e+00	1.099465e+00
9.900000e-01	3.799021e+00	1.094588e+00
9.930000e-01	3.797584e+00	1.089935e+00
9.960000e-01	3.795936e+00	1.085541e+00
9.990000e-01	3.794113e+00	1.081441e+00
1.005000e+00	3.790143e+00	1.074227e+00
1.012500e+00	3.785305e+00	1.067188e+00
1.020000e+00	3.781814e+00	1.061240e+00
1.027500e+00	3.778796e+00	1.055330e+00
1.035000e+00	3.775881e+00	1.049581e+00
1.042500e+00	3.772951e+00	1.044047e+00
1.050000e+00	3.769951e+00	1.038765e+00
1.057500e+00	3.766855e+00	1.033760e+00
1.065000e+00	3.763653e+00	1.029051e+00
1.072500e+00	3.760345e+00	1.024656e+00
1.080000e+00	3.756936e+00	1.020587e+00
1.087500e+00	3.753435e+00	1.016854e+00
1.095000e+00	3.749858e+00	1.013467e+00
1.102500e+00	3.746218e+00	1.010432e+00
1.110000e+00	3.742534e+00	1.007754e+00
1.117500e+00	3.738826e+00	1.005437e+00
1.125000e+00	3.735114e+00	1.003481e+00
1.132500e+00	3.731421e+00	1.001887e+00
1.140000e+00	3.727771e+00	1.000652e+00
1.147500e+00	3.724187e+00	9.997716e-01
1.155000e+00	3.720697e+00	9.992379e-01
1.162500e+00	3.717324e+00	9.990412e-01
1.170000e+00	3.714096e+00	9.991681e-01
1.177500e+00	3.711038e+00	9.996023e-01
1.185000e+00	3.708176e+00	1.000324e+00
1.192500e+00	3.705533e+00	1.001308e+00
1.200000e+00	3.703133e+00	1.002528e+00
1.207500e+00	3.700993e+00	1.003951e+00
1.215000e+00	3.699129e+00	1.005543e+00
1.222500e+00	3.697553e+00	1.007264e+00
1.230000e+00	3.696269e+00	1.009073e+00
1.237500e+00	3.695276e+00	1.010928e+00
1.245000e+00	3.694567e+00	1.012786e+00
1.252500e+00	3.694126e+00	1.014604e+00
1.260000e+00	3.693931e+00	1.016343e+00
1.267500e+00	3.693954e+00	1.017968e+00
1.275000e+00	3.694158e+00	1.019449e+00
1.282500e+00	3.694504e+00	1.020763e+00
1.290000e+00	3.694951e+00	1.021896e+00
1.297500e+00	3.695452e+00	1.022840e+00
1.305000e+00	3.695966e+00	1.023599e+00
1.312500e+00	3.696449e+00	1.024181e+00
1.320000e+00	3.696866e+00	1.024604e+00
1.327500e+00	3.697184e+00	1.024890e+00
1.335000e+00	3.697376e+00	1.025068e+00
1.342500e+00	3.697423e+00	1.025168e+00
1.350000e+00	3.697312e+00	1.025220e+00
1.357500e+00	3.697036e+00	1.025258e+00
1.365000e+00	3.696594e+00	1.025312e+00
1.372500e+00	3.695991e+00	1.025410e+00
1.380000e+00	3.695235e+00	1.025579e+00
1.387500e+00	3.694337e+00	1.025842e+00
1.395000e+00	3.693312e+00	1.026217e+00
1.402500e+00	3.692176e+00	1.026720e+00
1.410000e+00	3.690947e+00	1.027365e+00
1.417500e+00	3.689642e+00	1.028160e+00
1.425000e+00	3.688278e+00	1.029113e+00
1.432500e+00	3.686872e+00	1.030227e+00
1.440000e+00	3.685442e+00	1.031503e+00
1.447500e+00	3.684003e+00	1.032942e+00
1.455000e+00	3.682569e+00	1.034541e+00
1.462500e+00	3.681154e+00	1.036298e+00
1.470000e+00	3.679771e+00	1.038207e+00
1.477500e+00	3.678431e+00	1.040264e+00
1.485000e+00	3.677145e+00	1.042463e+00
1.492500e+00	3.675921e+00	1.044796e+00
1.500000e+00	3.674769e+00	1.047258e+00
1.507500e+00	3.673696e+00	1.049841e+00
1.515000e+00	3.672710e+00	1.052537e+00
1.522500e+00	3.671818e+00	1.055339e+00
1.530000e+00	3.671028e+00	1.058238e+00
1.537500e+00	3.670346e+00	1.061216e+00
1.545000e+00	3.669766e+00	1.064262e+00
1.552500e+00	3.669287e+00	1.067373e+00
1.560000e+00	3.668908e+00	1.070541e+00
1.567500e+00	3.668631e+00	1.073761e+00
1.575000e+00	3.668456e+00	1.077028e+00
1.582500e+00	3.668381e+00	1.080335e+00
1.590000e+00	3.668408e+00	1.083677e+00
1.597500e+00	3.668534e+00	1.087050e+00
1.605000e+00	3.668761e+00	1.090447e+00
1.612500e+00	3.669086e+00	1.093865e+00
1.620000e+00	3.669509e+00	1.097297e+00
1.627500e+00	3.670029e+00	1.100741e+00
1.635000e+00	3.670644e+00	1.104191e+00
1.642500e+00	3.671353e+00	1.107643e+00
1.650000e+00	3.672155e+00	1.111093e+00
1.657500e+00	3.673047e+00	1.114538e+00
1.665000e+00	3.674028e+00	1.117973e+00
1.672500e+00	3.675097e+00	1.121396e+00
1.680000e+00	3.676250e+00	1.124803e+00
1.687500e+00	3.677487e+00	1.128190e+00
