Material: inorganic / WTe2 / Munkhbat-gamma
Optical constants. B. Munkhbat, P. Wrobel, T. J. Antosiewicz, T. O. Shegai. Optical constants of several multilayer transition metal dichalcogenides spectroscopic ellipsometry in the 300–1700 nm range: High index, anisotropy, and hyperbolicity, ACS Photonics 9, 2398–2407 (2022) (Numerical data kindly provided by Tomasz Antosiewicz)
Comments: Multilayer flakes. nγ. Room temperature.
Specs: {"n_absolute": true, "wavelength_vacuum": true}
wavelength (um)	n
3.000000E-01	2.666066E+00
3.030000E-01	2.659708E+00
3.060000E-01	2.653625E+00
3.090000E-01	2.647803E+00
3.120000E-01	2.642224E+00
3.150000E-01	2.636875E+00
3.180000E-01	2.631743E+00
3.210000E-01	2.626815E+00
3.240000E-01	2.622079E+00
3.270000E-01	2.617526E+00
3.300000E-01	2.613146E+00
3.330000E-01	2.608929E+00
3.360000E-01	2.604866E+00
3.390000E-01	2.600951E+00
3.420000E-01	2.597175E+00
3.450000E-01	2.593532E+00
3.480000E-01	2.590015E+00
3.510000E-01	2.586618E+00
3.540000E-01	2.583336E+00
3.570000E-01	2.580162E+00
3.600000E-01	2.577093E+00
3.630000E-01	2.574123E+00
3.660000E-01	2.571247E+00
3.690000E-01	2.568462E+00
3.720000E-01	2.565764E+00
3.750000E-01	2.563149E+00
3.780000E-01	2.560613E+00
3.810000E-01	2.558153E+00
3.840000E-01	2.555766E+00
3.870000E-01	2.553450E+00
3.900000E-01	2.551200E+00
3.930000E-01	2.549014E+00
3.960000E-01	2.546891E+00
3.990000E-01	2.544827E+00
4.020000E-01	2.542820E+00
4.050000E-01	2.540868E+00
4.080000E-01	2.538969E+00
4.110000E-01	2.537121E+00
4.140000E-01	2.535321E+00
4.170000E-01	2.533570E+00
4.200000E-01	2.531863E+00
4.230000E-01	2.530201E+00
4.260000E-01	2.528581E+00
4.290000E-01	2.527002E+00
4.320000E-01	2.525462E+00
4.350000E-01	2.523961E+00
4.380000E-01	2.522496E+00
4.410000E-01	2.521067E+00
4.440000E-01	2.519672E+00
4.470000E-01	2.518311E+00
4.500000E-01	2.516981E+00
4.530000E-01	2.515683E+00
4.560000E-01	2.514415E+00
4.590000E-01	2.513176E+00
4.620000E-01	2.511966E+00
4.650000E-01	2.510782E+00
4.680000E-01	2.509626E+00
4.710000E-01	2.508495E+00
4.740000E-01	2.507388E+00
4.770000E-01	2.506307E+00
4.800000E-01	2.505248E+00
4.830000E-01	2.504212E+00
4.860000E-01	2.503199E+00
4.890000E-01	2.502207E+00
4.920000E-01	2.501236E+00
4.950000E-01	2.500284E+00
4.980000E-01	2.499353E+00
5.010000E-01	2.498441E+00
5.040000E-01	2.497547E+00
5.070000E-01	2.496671E+00
5.100000E-01	2.495813E+00
5.130000E-01	2.494972E+00
5.160000E-01	2.494148E+00
5.190000E-01	2.493340E+00
5.220000E-01	2.492547E+00
5.250000E-01	2.491770E+00
5.280000E-01	2.491008E+00
5.310000E-01	2.490260E+00
5.340000E-01	2.489527E+00
5.370000E-01	2.488807E+00
5.400000E-01	2.488101E+00
5.430000E-01	2.487407E+00
5.460000E-01	2.486727E+00
5.490000E-01	2.486059E+00
5.520000E-01	2.485403E+00
5.550000E-01	2.484759E+00
5.580000E-01	2.484126E+00
5.610000E-01	2.483505E+00
5.640000E-01	2.482895E+00
5.670000E-01	2.482295E+00
5.700000E-01	2.481706E+00
5.730000E-01	2.481128E+00
5.760000E-01	2.480559E+00
5.790000E-01	2.480000E+00
5.820000E-01	2.479450E+00
5.850000E-01	2.478910E+00
5.880000E-01	2.478379E+00
5.910000E-01	2.477857E+00
5.940000E-01	2.477343E+00
5.970000E-01	2.476838E+00
6.000000E-01	2.476341E+00
6.030000E-01	2.475852E+00
6.060000E-01	2.475372E+00
6.090000E-01	2.474899E+00
6.120000E-01	2.474433E+00
6.150000E-01	2.473975E+00
6.180000E-01	2.473525E+00
6.210000E-01	2.473081E+00
6.240000E-01	2.472644E+00
6.270000E-01	2.472215E+00
6.300000E-01	2.471791E+00
6.330000E-01	2.471375E+00
6.360000E-01	2.470965E+00
6.390000E-01	2.470561E+00
6.420000E-01	2.470163E+00
6.450000E-01	2.469771E+00
6.480000E-01	2.469385E+00
6.510000E-01	2.469005E+00
6.540000E-01	2.468630E+00
6.570000E-01	2.468261E+00
6.600000E-01	2.467897E+00
6.630000E-01	2.467539E+00
6.660000E-01	2.467186E+00
6.690000E-01	2.466838E+00
6.720000E-01	2.466495E+00
6.750000E-01	2.466157E+00
6.780000E-01	2.465824E+00
6.810000E-01	2.465495E+00
6.840000E-01	2.465171E+00
6.870000E-01	2.464852E+00
6.900000E-01	2.464537E+00
6.930000E-01	2.464227E+00
6.960000E-01	2.463920E+00
6.990000E-01	2.463618E+00
7.020000E-01	2.463320E+00
7.050000E-01	2.463027E+00
7.080000E-01	2.462737E+00
7.110000E-01	2.462451E+00
7.140000E-01	2.462169E+00
7.170000E-01	2.461890E+00
7.200000E-01	2.461616E+00
7.230000E-01	2.461345E+00
7.260000E-01	2.461077E+00
7.290000E-01	2.460814E+00
7.320000E-01	2.460553E+00
7.350000E-01	2.460296E+00
7.380000E-01	2.460042E+00
7.410000E-01	2.459792E+00
7.440000E-01	2.459545E+00
7.470000E-01	2.459300E+00
7.500000E-01	2.459059E+00
7.530000E-01	2.458821E+00
7.560000E-01	2.458586E+00
7.590000E-01	2.458354E+00
7.620000E-01	2.458125E+00
7.650000E-01	2.457899E+00
7.680000E-01	2.457676E+00
7.710000E-01	2.457455E+00
7.740000E-01	2.457237E+00
7.770000E-01	2.457022E+00
7.800000E-01	2.456809E+00
7.830000E-01	2.456599E+00
7.860000E-01	2.456391E+00
7.890000E-01	2.456186E+00
7.920000E-01	2.455983E+00
7.950000E-01	2.455783E+00
7.980000E-01	2.455585E+00
8.010000E-01	2.455390E+00
8.040000E-01	2.455196E+00
8.070000E-01	2.455005E+00
8.100000E-01	2.454817E+00
8.130000E-01	2.454630E+00
8.160000E-01	2.454446E+00
8.190000E-01	2.454263E+00
8.220000E-01	2.454083E+00
8.250000E-01	2.453905E+00
8.280000E-01	2.453729E+00
8.310000E-01	2.453555E+00
8.340000E-01	2.453383E+00
8.370000E-01	2.453212E+00
8.400000E-01	2.453044E+00
8.430000E-01	2.452878E+00
8.460000E-01	2.452713E+00
8.490000E-01	2.452550E+00
8.520000E-01	2.452390E+00
8.550000E-01	2.452230E+00
8.580000E-01	2.452073E+00
8.610000E-01	2.451917E+00
8.640000E-01	2.451763E+00
8.670000E-01	2.451611E+00
8.700000E-01	2.451460E+00
8.730000E-01	2.451311E+00
8.760000E-01	2.451164E+00
8.790000E-01	2.451018E+00
8.820000E-01	2.450873E+00
8.850000E-01	2.450731E+00
8.880000E-01	2.450589E+00
8.910000E-01	2.450449E+00
8.940000E-01	2.450311E+00
8.970000E-01	2.450174E+00
9.000000E-01	2.450039E+00
9.030000E-01	2.449904E+00
9.060000E-01	2.449772E+00
9.090000E-01	2.449640E+00
9.120000E-01	2.449510E+00
9.150000E-01	2.449382E+00
9.180000E-01	2.449254E+00
9.210000E-01	2.449128E+00
9.240000E-01	2.449003E+00
9.270000E-01	2.448880E+00
9.300000E-01	2.448758E+00
9.330000E-01	2.448637E+00
9.360000E-01	2.448517E+00
9.390000E-01	2.448398E+00
9.420000E-01	2.448280E+00
9.450000E-01	2.448164E+00
9.480000E-01	2.448049E+00
9.510000E-01	2.447935E+00
9.540000E-01	2.447822E+00
9.570000E-01	2.447710E+00
9.600000E-01	2.447599E+00
9.630000E-01	2.447490E+00
9.660000E-01	2.447381E+00
9.690000E-01	2.447273E+00
9.720000E-01	2.447167E+00
9.750000E-01	2.447061E+00
9.780000E-01	2.446957E+00
9.810000E-01	2.446853E+00
9.840000E-01	2.446750E+00
9.870000E-01	2.446649E+00
9.900000E-01	2.446548E+00
9.930000E-01	2.446448E+00
9.960000E-01	2.446350E+00
9.990000E-01	2.446252E+00
1.005000E+00	2.446059E+00
1.012500E+00	2.445822E+00
1.020000E+00	2.445591E+00
1.027500E+00	2.445366E+00
1.035000E+00	2.445145E+00
1.042500E+00	2.444929E+00
1.050000E+00	2.444718E+00
1.057500E+00	2.444512E+00
1.065000E+00	2.444310E+00
1.072500E+00	2.444112E+00
1.080000E+00	2.443919E+00
1.087500E+00	2.443729E+00
1.095000E+00	2.443544E+00
1.102500E+00	2.443362E+00
1.110000E+00	2.443185E+00
1.117500E+00	2.443011E+00
1.125000E+00	2.442840E+00
1.132500E+00	2.442673E+00
1.140000E+00	2.442510E+00
1.147500E+00	2.442349E+00
1.155000E+00	2.442192E+00
1.162500E+00	2.442038E+00
1.170000E+00	2.441887E+00
1.177500E+00	2.441739E+00
1.185000E+00	2.441594E+00
1.192500E+00	2.441451E+00
1.200000E+00	2.441311E+00
1.207500E+00	2.441174E+00
1.215000E+00	2.441040E+00
1.222500E+00	2.440908E+00
1.230000E+00	2.440778E+00
1.237500E+00	2.440651E+00
1.245000E+00	2.440527E+00
1.252500E+00	2.440404E+00
1.260000E+00	2.440284E+00
1.267500E+00	2.440166E+00
1.275000E+00	2.440050E+00
1.282500E+00	2.439936E+00
1.290000E+00	2.439824E+00
1.297500E+00	2.439714E+00
1.305000E+00	2.439606E+00
1.312500E+00	2.439500E+00
1.320000E+00	2.439396E+00
1.327500E+00	2.439294E+00
1.335000E+00	2.439193E+00
1.342500E+00	2.439094E+00
1.350000E+00	2.438997E+00
1.357500E+00	2.438901E+00
1.365000E+00	2.438807E+00
1.372500E+00	2.438714E+00
1.380000E+00	2.438623E+00
1.387500E+00	2.438534E+00
1.395000E+00	2.438446E+00
1.402500E+00	2.438359E+00
1.410000E+00	2.438274E+00
1.417500E+00	2.438190E+00
1.425000E+00	2.438108E+00
1.432500E+00	2.438027E+00
1.440000E+00	2.437947E+00
1.447500E+00	2.437868E+00
1.455000E+00	2.437791E+00
1.462500E+00	2.437715E+00
1.470000E+00	2.437640E+00
1.477500E+00	2.437566E+00
1.485000E+00	2.437493E+00
1.492500E+00	2.437422E+00
1.500000E+00	2.437351E+00
1.507500E+00	2.437282E+00
1.515000E+00	2.437213E+00
1.522500E+00	2.437146E+00
1.530000E+00	2.437080E+00
1.537500E+00	2.437014E+00
1.545000E+00	2.436950E+00
1.552500E+00	2.436886E+00
1.560000E+00	2.436824E+00
1.567500E+00	2.436762E+00
1.575000E+00	2.436701E+00
1.582500E+00	2.436641E+00
1.590000E+00	2.436582E+00
1.597500E+00	2.436524E+00
1.605000E+00	2.436467E+00
1.612500E+00	2.436410E+00
1.620000E+00	2.436354E+00
1.627500E+00	2.436299E+00
1.635000E+00	2.436245E+00
1.642500E+00	2.436192E+00
1.650000E+00	2.436139E+00
1.657500E+00	2.436087E+00
1.665000E+00	2.436036E+00
1.672500E+00	2.435985E+00
1.680000E+00	2.435935E+00
1.687500E+00	2.435886E+00
