Material: main / Al2O3 / Querry-e
Optical constants. M. R. Querry. Optical constants, Contractor Report CRDC-CR-85034 (1985)
Comments: Î±-Al2O3 (Sapphire). Extraordinary ray (e).
wavelength (um)	n	k
0.2100	1.804	-0.048
0.2300	1.780	-0.024
0.2500	1.763	-0.014
0.2700	1.751	-0.003
0.2900	1.743	0.002
0.3100	1.738	0.010
0.3300	1.737	0.013
0.3500	1.734	0.015
0.3700	1.733	0.018
0.3900	1.733	0.018
0.4100	1.731	0.019
0.4300	1.730	0.020
0.4500	1.730	0.020
0.4700	1.730	0.020
0.4900	1.729	0.021
0.5100	1.729	0.021
0.5300	1.729	0.020
0.5500	1.729	0.020
0.5700	1.728	0.020
0.5900	1.728	0.020
0.6100	1.728	0.020
0.6300	1.728	0.020
0.6500	1.727	0.020
0.6700	1.727	0.020
0.6900	1.727	0.020
0.7100	1.727	0.020
0.7300	1.727	0.020
0.7500	1.727	0.020
0.7700	1.727	0.020
0.7900	1.727	0.019
0.8100	1.726	0.019
0.8300	1.726	0.020
0.8500	1.726	0.019
0.8700	1.726	0.019
0.8900	1.726	0.019
0.9100	1.726	0.019
0.9300	1.726	0.019
0.9500	1.726	0.019
0.9700	1.726	0.019
0.9900	1.726	0.019
1.0100	1.726	0.019
1.0300	1.726	0.019
1.0500	1.726	0.019
1.0700	1.726	0.018
1.0900	1.726	0.019
1.1100	1.726	0.019
1.1300	1.726	0.019
1.1500	1.726	0.018
1.1700	1.725	0.019
1.1900	1.725	0.019
1.2100	1.726	0.019
1.2300	1.726	0.019
1.2500	1.726	0.019
1.2700	1.726	0.018
1.2900	1.725	0.018
1.3100	1.725	0.017
1.3300	1.724	0.018
1.3500	1.724	0.018
1.3700	1.724	0.018
1.3900	1.724	0.018
1.4100	1.725	0.018
1.4300	1.724	0.018
1.4500	1.725	0.017
1.4700	1.724	0.017
1.4900	1.724	0.017
1.5100	1.724	0.016
1.5300	1.725	0.017
1.5500	1.723	0.016
1.5700	1.723	0.015
1.5900	1.722	0.016
1.6100	1.722	0.016
1.6300	1.721	0.015
1.6500	1.721	0.016
1.6700	1.721	0.016
1.6900	1.721	0.017
1.7100	1.721	0.017
1.7300	1.720	0.016
1.7500	1.720	0.016
1.7700	1.720	0.017
1.7900	1.720	0.015
1.8100	1.719	0.015
1.8300	1.718	0.015
1.8500	1.717	0.015
1.8700	1.716	0.016
1.8900	1.717	0.018
1.9100	1.718	0.016
1.9300	1.717	0.017
1.9500	1.718	0.016
1.9700	1.717	0.015
1.9900	1.716	0.015
2.0100	1.715	0.015
2.0300	1.715	0.015
2.0500	1.714	0.015
2.0700	1.714	0.015
2.0900	1.714	0.015
2.1100	1.713	0.016
2.1300	1.713	0.015
2.1500	1.712	0.016
2.1700	1.712	0.016
2.1900	1.712	0.016
2.2100	1.711	0.016
2.2300	1.711	0.017
2.2500	1.711	0.017
2.2700	1.711	0.017
2.2900	1.711	0.016
2.3100	1.710	0.016
2.3300	1.710	0.016
2.3500	1.710	0.016
2.3700	1.709	0.016
2.3900	1.709	0.017
2.4100	1.709	0.016
2.4300	1.709	0.015
2.4500	1.709	0.015
2.4700	1.708	0.014
2.4900	1.707	0.013
2.5063	1.707	0.013
2.5189	1.706	0.012
2.5316	1.705	0.013
2.5445	1.704	0.012
2.5575	1.703	0.012
2.5707	1.703	0.013
2.5840	1.702	0.012
2.5974	1.701	0.012
2.6110	1.700	0.013
2.6247	1.699	0.013
2.6385	1.698	0.015
2.6525	1.698	0.015
2.6667	1.698	0.015
2.6810	1.698	0.016
2.6954	1.698	0.015
2.7100	1.697	0.016
2.7248	1.696	0.016
2.7397	1.697	0.017
2.7548	1.697	0.018
2.7701	1.697	0.016
2.7855	1.697	0.016
2.8011	1.696	0.016
2.8169	1.695	0.016
2.8329	1.695	0.017
2.8490	1.695	0.016
2.8653	1.694	0.016
2.8818	1.694	0.017
2.8986	1.693	0.016
2.9155	1.692	0.016
2.9326	1.692	0.017
2.9499	1.691	0.016
2.9674	1.690	0.017
2.9851	1.690	0.018
3.0030	1.690	0.018
3.0211	1.690	0.019
3.0395	1.689	0.018
3.0581	1.688	0.018
3.0769	1.688	0.019
3.0960	1.687	0.017
3.1153	1.686	0.019
3.1348	1.686	0.019
3.1546	1.686	0.018
3.1746	1.685	0.019
3.1949	1.685	0.019
3.2154	1.684	0.019
3.2362	1.684	0.020
3.2573	1.683	0.019
3.2787	1.683	0.020
3.3003	1.683	0.020
3.3223	1.683	0.019
3.3445	1.682	0.020
3.3670	1.681	0.019
3.3898	1.681	0.018
3.4130	1.680	0.019
3.4364	1.678	0.018
3.4602	1.678	0.019
3.4843	1.677	0.018
3.5088	1.676	0.017
3.5336	1.675	0.018
3.5587	1.674	0.017
3.5842	1.673	0.017
3.6101	1.672	0.018
3.6364	1.670	0.017
3.6630	1.669	0.017
3.6900	1.668	0.018
3.7175	1.667	0.017
3.7453	1.665	0.019
3.7736	1.665	0.018
3.8023	1.663	0.018
3.8314	1.661	0.019
3.8610	1.661	0.019
3.8911	1.660	0.020
3.9216	1.659	0.019
3.9526	1.657	0.018
3.9841	1.655	0.020
4.0161	1.653	0.019
4.0486	1.652	0.020
4.0816	1.651	0.022
4.1152	1.650	0.020
4.1494	1.648	0.021
4.1841	1.647	0.022
4.2194	1.646	0.022
4.2553	1.645	0.023
4.2918	1.643	0.022
4.3290	1.642	0.021
4.3668	1.640	0.022
4.4053	1.637	0.021
4.4444	1.635	0.022
4.4843	1.633	0.023
4.5249	1.631	0.021
4.5662	1.629	0.024
4.6083	1.627	0.023
4.6512	1.625	0.024
4.6948	1.623	0.025
4.7393	1.621	0.024
4.7847	1.619	0.025
4.8309	1.616	0.025
4.8780	1.614	0.025
4.9261	1.611	0.027
4.9751	1.609	0.027
5.0251	1.607	0.027
5.0761	1.604	0.028
5.1232	1.602	0.027
5.1817	1.599	0.028
5.2356	1.597	0.028
5.2910	1.594	0.026
5.3476	1.591	0.027
5.4054	1.587	0.026
5.4645	1.583	0.026
5.5249	1.579	0.027
5.5866	1.575	0.025
5.6497	1.570	0.027
5.7143	1.566	0.027
5.7803	1.561	0.026
5.8480	1.556	0.028
5.9172	1.551	0.028
5.9880	1.546	0.028
6.0606	1.540	0.029
6.1350	1.535	0.028
6.2112	1.529	0.030
6.2893	1.523	0.030
6.3694	1.517	0.029
6.4516	1.510	0.031
6.5359	1.503	0.030
6.6225	1.496	0.030
6.7114	1.487	0.032
6.8027	1.479	0.032
6.8966	1.470	0.033
6.9710	1.461	0.033
7.0722	1.451	0.032
7.1942	1.441	0.034
7.2993	1.430	0.034
7.4074	1.418	0.034
7.5188	1.405	0.036
7.6336	1.392	0.035
7.7519	1.378	0.036
7.8740	1.360	0.034
8.0000	1.342	0.037
8.1301	1.323	0.038
8.2645	1.305	0.044
8.4034	1.287	0.040
8.5470	1.256	0.049
8.6957	1.243	0.052
8.8496	1.213	0.050
9.0090	1.185	0.053
9.1743	1.151	0.058
9.3458	1.113	0.061
9.5238	1.075	0.072
9.7087	1.039	0.070
9.9010	0.988	0.074
10.1010	0.938	0.080
10.3093	0.870	0.083
10.5263	0.786	0.092
10.7527	0.692	0.108
10.9890	0.554	0.123
11.2360	0.370	0.185
11.4943	0.174	0.377
11.7647	0.103	0.619
12.0482	0.096	0.837
12.3457	0.112	1.005
12.6582	0.114	1.160
12.9870	0.123	1.338
13.3333	0.123	1.486
13.6986	0.129	1.692
14.0845	0.141	1.902
14.4928	0.150	2.121
14.9254	0.204	2.482
15.3846	0.284	2.776
15.8730	0.341	3.262
16.3934	0.732	4.334
16.9492	2.037	5.762
17.5439	6.173	1.715
18.1818	3.346	0.293
18.8679	1.982	0.406
19.6078	0.306	0.634
20.4082	0.135	2.215
21.2766	0.137	3.165
22.2222	0.222	4.127
23.2558	0.644	6.176
24.3902	2.014	9.319
25.6410	13.617	5.703
27.0270	7.689	-0.115
28.5714	5.960	0.146
30.3030	5.213	0.007
32.2581	4.717	0.003
34.4828	4.389	0.088
37.0370	4.226	0.048
40.0000	4.055	0.053
43.4783	3.921	0.042
47.6190	3.814	0.016
52.6316	3.727	0.037
