Material: main / Al2O3 / Querry
Optical constants. M. R. Querry. Optical constants, Contractor Report CRDC-CR-85034 (1985)
Comments: Oxidized Al mirror.
wavelength (um)	n	k
0.2100	0.240	1.976
0.2300	0.217	2.199
0.2500	0.217	2.433
0.2700	0.231	2.665
0.2900	0.252	2.891
0.3100	0.276	3.114
0.3300	0.301	3.336
0.3500	0.329	3.557
0.3700	0.359	3.779
0.3900	0.400	4.001
0.4100	0.442	4.216
0.4300	0.485	4.429
0.4500	0.531	4.643
0.4700	0.584	4.856
0.4900	0.639	5.064
0.5100	0.698	5.272
0.5300	0.762	5.476
0.5500	0.830	5.676
0.5700	0.899	5.876
0.5900	0.977	6.075
0.6100	1.062	6.268
0.6300	1.153	6.457
0.6500	1.258	6.641
0.6700	1.370	6.808
0.6900	1.488	6.966
0.7100	1.618	7.111
0.7300	1.759	7.232
0.7500	1.910	7.324
0.7700	2.068	7.365
0.7900	2.198	7.339
0.8101	2.262	7.264
0.8300	2.234	7.166
0.8500	2.104	7.107
0.8700	1.918	7.131
0.8900	1.727	7.238
0.9100	1.560	7.405
0.9300	1.427	7.607
0.9500	1.326	7.826
0.9700	1.250	8.051
0.9900	1.194	8.277
1.0100	1.151	8.500
1.0300	1.117	8.726
1.0500	1.093	8.951
1.0700	1.077	9.174
1.0900	1.069	9.395
1.1100	1.068	9.614
1.1300	1.072	9.828
1.1500	1.080	10.037
1.1700	1.085	10.243
1.1900	1.088	10.449
1.2100	1.091	10.661
1.2300	1.105	10.876
1.2500	1.122	11.086
1.2700	1.139	11.297
1.2900	1.164	11.508
1.3100	1.193	11.712
1.3300	1.219	11.911
1.3500	1.244	12.110
1.3700	1.265	12.310
1.3900	1.291	12.513
1.4100	1.320	12.716
1.4300	1.348	12.915
1.4500	1.375	13.117
1.4700	1.408	13.320
1.4900	1.442	13.523
1.5100	1.483	13.723
1.5300	1.520	13.916
1.5500	1.550	14.116
1.5700	1.588	14.323
1.5900	1.638	14.518
1.6100	1.683	14.712
1.6300	1.727	14.905
1.6500	1.773	15.097
1.6700	1.818	15.288
1.6900	1.864	15.478
1.7100	1.910	15.668
1.7300	1.957	15.856
1.7500	2.004	16.044
1.7700	2.052	16.231
1.7900	2.100	16.417
1.8100	2.148	16.602
1.8300	2.193	16.788
1.8500	2.243	16.974
1.8700	2.293	17.159
1.8900	2.343	17.344
1.9100	2.394	17.528
1.9300	2.445	17.711
1.9500	2.496	17.894
1.9700	2.548	18.076
1.9900	2.601	18.258
2.0100	2.654	18.439
2.0300	2.707	18.620
2.0500	2.761	18.800
2.0700	2.815	18.980
2.0900	2.869	19.160
2.1100	2.924	19.339
2.1300	2.980	19.517
2.1500	3.036	19.696
2.1700	3.092	19.873
2.1900	3.148	20.050
2.2100	3.205	20.227
2.2300	3.263	20.403
2.2500	3.320	20.578
2.2700	3.378	20.752
2.2900	3.431	20.929
2.3100	3.491	21.106
2.3300	3.551	21.281
2.3500	3.611	21.455
2.3700	3.671	21.629
2.3900	3.732	21.803
2.4100	3.793	21.975
2.4300	3.854	22.148
2.4500	3.916	22.319
2.4700	3.978	22.490
2.4900	4.040	22.658
2.5063	4.084	22.799
2.5189	4.125	22.909
2.5316	4.165	23.018
2.5445	4.207	23.128
2.5575	4.248	23.230
2.5707	4.290	23.350
2.5840	4.333	23.462
2.5974	4.376	23.575
2.6110	4.420	23.688
2.6247	4.464	23.802
2.6385	4.508	23.916
2.6525	4.545	24.032
2.6667	4.593	24.153
2.6810	4.640	24.272
2.6954	4.686	24.388
2.7100	4.728	24.514
2.7248	4.776	24.634
2.7397	4.819	24.763
2.7548	4.869	24.886
2.7701	4.914	25.019
2.7855	4.965	25.144
2.8011	5.011	25.280
2.8169	5.057	25.413
2.8329	5.114	25.550
2.8490	5.161	25.686
2.8653	5.220	25.826
2.8818	5.269	25.965
2.8986	5.330	26.110
2.9155	5.390	26.251
2.9326	5.442	26.395
2.9499	5.539	26.619
2.9674	5.571	26.693
2.9851	5.636	26.842
3.0030	5.702	26.991
3.0211	5.768	27.142
3.0395	5.836	27.294
3.0581	5.905	27.448
3.0769	5.976	27.603
3.0960	6.048	27.762
3.1153	6.132	27.919
3.1348	6.202	28.071
3.1546	6.276	28.230
3.1746	6.351	28.390
3.1949	6.427	28.552
3.2154	6.505	28.716
3.2362	6.585	28.882
3.2573	6.665	29.050
3.2787	6.747	29.219
3.3003	6.831	29.390
3.3223	6.916	29.562
3.3445	7.003	29.737
3.3670	7.091	29.913
3.3898	7.180	30.091
3.4130	7.271	30.270
3.4364	7.364	30.451
3.4602	7.457	30.633
3.4843	7.550	30.812
3.5088	7.639	31.011
3.5336	7.741	31.204
3.5587	7.844	31.398
3.5842	7.948	31.593
3.6101	8.054	31.790
3.6364	8.162	31.989
3.6630	8.272	32.190
3.6900	8.384	32.393
3.7175	8.498	32.597
3.7594	8.673	32.908
3.7736	8.732	33.013
3.8023	8.852	33.223
3.8314	8.975	33.436
3.8610	9.099	33.650
3.8911	9.226	33.866
3.9216	9.354	34.083
3.9526	9.480	34.296
3.9841	9.603	34.533
4.0161	9.741	34.761
4.0486	9.879	34.987
4.0816	10.002	35.220
4.1152	10.149	35.457
4.1494	10.277	35.695
4.1841	10.414	35.945
4.2194	10.569	36.190
4.2553	10.711	36.447
4.2918	10.862	36.715
4.3290	11.008	36.975
4.3668	11.162	37.246
4.4053	11.322	37.524
4.4444	11.501	37.792
4.4843	11.652	38.089
4.5249	11.842	38.370
4.5662	12.018	38.664
4.6083	12.201	38.967
4.6512	12.394	39.282
4.6948	12.584	39.590
4.7393	12.801	39.895
4.7847	13.009	40.225
4.8309	13.232	40.532
4.8780	13.452	40.871
4.9261	13.687	41.188
4.9751	13.920	41.540
5.0251	14.176	41.877
5.0761	14.436	42.214
5.1282	14.701	42.555
5.1813	14.972	42.898
5.2356	15.250	43.246
5.2910	15.535	43.598
5.3476	15.831	43.958
5.4054	16.158	44.306
5.4645	16.453	44.654
5.5249	16.763	45.015
5.5866	17.091	45.393
5.6497	17.431	45.730
5.7143	17.758	46.095
5.7803	18.097	46.466
5.8480	18.444	46.842
5.9172	18.801	47.222
5.9880	19.166	47.605
6.0606	19.539	47.990
6.1350	19.917	48.375
6.2112	20.273	48.783
6.2893	20.687	49.192
6.3694	21.069	49.615
6.4516	21.508	50.034
6.5359	21.911	50.468
6.6225	22.365	50.889
6.7114	22.816	51.354
6.8027	23.262	51.809
6.8966	23.758	52.247
6.9930	24.240	52.721
7.0922	24.743	53.206
7.1942	25.267	53.703
7.2993	25.824	54.219
7.4074	26.372	54.721
7.5188	26.979	55.199
7.6336	27.586	55.729
7.7519	28.189	56.248
7.8740	28.855	56.739
8.0000	29.524	57.287
8.1301	30.192	57.825
8.2645	30.941	58.339
8.4034	31.643	58.879
8.5470	32.432	59.393
8.6957	33.171	59.933
8.8496	33.963	60.496
9.0090	34.814	61.007
9.1743	35.672	61.581
9.3458	36.516	62.135
9.5238	37.410	62.703
9.7087	38.335	63.273
9.9010	39.289	63.844
10.1010	40.253	64.404
10.3093	41.294	64.987
10.5263	42.300	65.622
10.7527	43.429	66.211
10.9890	44.505	66.849
11.2360	45.665	67.506
11.4943	46.879	68.170
11.7647	48.140	68.834
12.0482	49.415	69.585
12.3457	50.874	70.282
