Material: organic / C3H9O3P - dimethyl methylphosphonate / Myers
Optical constants. T. L. Myers, R. G. Tonkyn, T. O. Danby, M. S. Taubman, B. E. Bernacki, J. C. Birnbaum, S. W. Sharpe, T. J. Johnson. Accurate measurement of the optical constants n and k for a series of 57 inorganic and organic liquids for optical modeling and detection, Appl. Spectrosc. 72, 535-550 (2018) (see Supplemental Material for numerical data)
Comments: 26 Â°C
Specs: {"n_absolute": true, "wavelength_vacuum": true, "temperature": "26 Â°C"}
wavelength (um)	n	k
1.28221E+00	1.40095E+00	2.97687E-05
1.28531E+00	1.40098E+00	3.03571E-05
1.28842E+00	1.40098E+00	2.92650E-05
1.29155E+00	1.40098E+00	1.70110E-05
1.29469E+00	1.40097E+00	1.32408E-05
1.29785E+00	1.40096E+00	1.19909E-05
1.30103E+00	1.40095E+00	2.23908E-05
1.30422E+00	1.40095E+00	2.66579E-05
1.30743E+00	1.40095E+00	3.19795E-05
1.31065E+00	1.40095E+00	2.73452E-05
1.31389E+00	1.40095E+00	1.76219E-05
1.31714E+00	1.40094E+00	1.05417E-05
1.32041E+00	1.40093E+00	8.59556E-06
1.32370E+00	1.40092E+00	6.42311E-06
1.32700E+00	1.40091E+00	4.88025E-06
1.33032E+00	1.40089E+00	6.13176E-06
1.33366E+00	1.40089E+00	8.33094E-06
1.33701E+00	1.40088E+00	9.15522E-06
1.34038E+00	1.40087E+00	9.76149E-06
1.34377E+00	1.40086E+00	1.04991E-05
1.34717E+00	1.40085E+00	1.11388E-05
1.35059E+00	1.40084E+00	1.18997E-05
1.35403E+00	1.40084E+00	1.25362E-05
1.35749E+00	1.40083E+00	1.33157E-05
1.36096E+00	1.40082E+00	1.43299E-05
1.36445E+00	1.40081E+00	1.57386E-05
1.36796E+00	1.40080E+00	1.69830E-05
1.37149E+00	1.40079E+00	1.84101E-05
1.37504E+00	1.40079E+00	1.97401E-05
1.37860E+00	1.40078E+00	2.12065E-05
1.38219E+00	1.40077E+00	2.25624E-05
1.38579E+00	1.40076E+00	2.39220E-05
1.38941E+00	1.40075E+00	2.51847E-05
1.39305E+00	1.40075E+00	2.65620E-05
1.39671E+00	1.40074E+00	2.79432E-05
1.40039E+00	1.40073E+00	2.93326E-05
1.40408E+00	1.40072E+00	3.08607E-05
1.40780E+00	1.40071E+00	3.23015E-05
1.41154E+00	1.40071E+00	3.37913E-05
1.41529E+00	1.40070E+00	3.46224E-05
1.41907E+00	1.40069E+00	3.52211E-05
1.42287E+00	1.40068E+00	3.54166E-05
1.42669E+00	1.40068E+00	3.56969E-05
1.43052E+00	1.40067E+00	3.58084E-05
1.43438E+00	1.40066E+00	3.60919E-05
1.43826E+00	1.40065E+00	3.61060E-05
1.44216E+00	1.40065E+00	3.55770E-05
1.44608E+00	1.40064E+00	3.38041E-05
1.45003E+00	1.40063E+00	3.23358E-05
1.45399E+00	1.40062E+00	3.05527E-05
1.45798E+00	1.40061E+00	2.90673E-05
1.46199E+00	1.40060E+00	2.73819E-05
1.46602E+00	1.40059E+00	2.58834E-05
1.47007E+00	1.40058E+00	2.43154E-05
1.47414E+00	1.40057E+00	2.30760E-05
1.47824E+00	1.40056E+00	2.24649E-05
1.48236E+00	1.40055E+00	2.19548E-05
1.48651E+00	1.40053E+00	2.19044E-05
1.49067E+00	1.40052E+00	2.23264E-05
1.49486E+00	1.40051E+00	2.29087E-05
1.49908E+00	1.40050E+00	2.33368E-05
1.50332E+00	1.40049E+00	2.39452E-05
1.50758E+00	1.40048E+00	2.43853E-05
1.51186E+00	1.40047E+00	2.48968E-05
1.51617E+00	1.40046E+00	2.49554E-05
1.52051E+00	1.40044E+00	2.51115E-05
1.52487E+00	1.40043E+00	2.50220E-05
1.52925E+00	1.40042E+00	2.52012E-05
1.53366E+00	1.40041E+00	2.54456E-05
1.53810E+00	1.40039E+00	2.61646E-05
1.54256E+00	1.40038E+00	2.68056E-05
1.54705E+00	1.40037E+00	2.75202E-05
1.55156E+00	1.40036E+00	2.81894E-05
1.55610E+00	1.40034E+00	2.88445E-05
1.56067E+00	1.40033E+00	2.95544E-05
1.56526E+00	1.40032E+00	3.01839E-05
1.56988E+00	1.40031E+00	3.09603E-05
1.57453E+00	1.40029E+00	3.15538E-05
1.57921E+00	1.40028E+00	3.23692E-05
1.58391E+00	1.40027E+00	3.29379E-05
1.58864E+00	1.40025E+00	3.37825E-05
1.59340E+00	1.40024E+00	3.43475E-05
1.59819E+00	1.40022E+00	3.51960E-05
1.60301E+00	1.40021E+00	3.57650E-05
1.60786E+00	1.40019E+00	3.68640E-05
1.61273E+00	1.40018E+00	3.76929E-05
1.61764E+00	1.40016E+00	3.96885E-05
1.62258E+00	1.40015E+00	4.15318E-05
1.62754E+00	1.40013E+00	4.38313E-05
1.63254E+00	1.40011E+00	4.58742E-05
1.63756E+00	1.40010E+00	4.81390E-05
1.64262E+00	1.40008E+00	5.04103E-05
1.64771E+00	1.40006E+00	5.30348E-05
1.65283E+00	1.40004E+00	5.99863E-05
1.65799E+00	1.40002E+00	6.85338E-05
1.66317E+00	1.40000E+00	8.89566E-05
1.66839E+00	1.39999E+00	1.06912E-04
1.67364E+00	1.39999E+00	1.22780E-04
1.67893E+00	1.39999E+00	1.22203E-04
1.68424E+00	1.40000E+00	1.42472E-04
1.68959E+00	1.40001E+00	1.13045E-04
1.69498E+00	1.39999E+00	9.88711E-05
1.70040E+00	1.39996E+00	9.04313E-05
1.70585E+00	1.39994E+00	9.78966E-05
1.71134E+00	1.39992E+00	1.08536E-04
1.71687E+00	1.39991E+00	1.21726E-04
1.72243E+00	1.39990E+00	1.33267E-04
1.72803E+00	1.39992E+00	1.42043E-04
1.73366E+00	1.39993E+00	1.09429E-04
1.73933E+00	1.39990E+00	8.70465E-05
1.74504E+00	1.39988E+00	7.96319E-05
1.75078E+00	1.39986E+00	7.23836E-05
1.75657E+00	1.39984E+00	6.44436E-05
1.76239E+00	1.39982E+00	6.04653E-05
1.76825E+00	1.39979E+00	5.90576E-05
1.77415E+00	1.39977E+00	5.76778E-05
1.78009E+00	1.39975E+00	5.69186E-05
1.78606E+00	1.39973E+00	5.54860E-05
1.79208E+00	1.39971E+00	5.40994E-05
1.79814E+00	1.39969E+00	5.15583E-05
1.80424E+00	1.39967E+00	5.01843E-05
1.81039E+00	1.39965E+00	4.74386E-05
1.81657E+00	1.39963E+00	4.56425E-05
1.82280E+00	1.39961E+00	4.37384E-05
1.82907E+00	1.39958E+00	4.24406E-05
1.83538E+00	1.39956E+00	4.18429E-05
1.84174E+00	1.39954E+00	4.15892E-05
1.84814E+00	1.39951E+00	4.13821E-05
1.85458E+00	1.39949E+00	4.14778E-05
1.86107E+00	1.39946E+00	4.16188E-05
1.86761E+00	1.39944E+00	4.22820E-05
1.87419E+00	1.39941E+00	4.31680E-05
1.88082E+00	1.39939E+00	4.40222E-05
1.88750E+00	1.39937E+00	4.52097E-05
1.89422E+00	1.39934E+00	4.59134E-05
1.90099E+00	1.39932E+00	4.67021E-05
1.90781E+00	1.39929E+00	4.66921E-05
1.91468E+00	1.39927E+00	4.69920E-05
1.92160E+00	1.39924E+00	4.70199E-05
1.92857E+00	1.39922E+00	4.72018E-05
1.93559E+00	1.39919E+00	4.67908E-05
1.94266E+00	1.39917E+00	4.50015E-05
1.94978E+00	1.39914E+00	4.23096E-05
1.95696E+00	1.39911E+00	4.03672E-05
1.96418E+00	1.39908E+00	3.88008E-05
1.97147E+00	1.39905E+00	3.77657E-05
1.97880E+00	1.39902E+00	3.71830E-05
1.98619E+00	1.39899E+00	3.66978E-05
1.99364E+00	1.39895E+00	3.62839E-05
2.00114E+00	1.39892E+00	3.57042E-05
2.00870E+00	1.39889E+00	3.53611E-05
2.01632E+00	1.39885E+00	3.51930E-05
2.02399E+00	1.39882E+00	3.58311E-05
2.03172E+00	1.39878E+00	3.62308E-05
2.03951E+00	1.39875E+00	3.69057E-05
2.04737E+00	1.39871E+00	3.75425E-05
2.05528E+00	1.39867E+00	3.84742E-05
2.06325E+00	1.39863E+00	4.00042E-05
2.07129E+00	1.39859E+00	4.26316E-05
2.07939E+00	1.39855E+00	4.52725E-05
2.08755E+00	1.39850E+00	4.82611E-05
2.09578E+00	1.39846E+00	5.08591E-05
2.10407E+00	1.39841E+00	5.53338E-05
2.11243E+00	1.39837E+00	5.98578E-05
2.12085E+00	1.39832E+00	6.49416E-05
2.12935E+00	1.39827E+00	7.00973E-05
2.13791E+00	1.39822E+00	7.48995E-05
2.14654E+00	1.39816E+00	8.02235E-05
2.15524E+00	1.39810E+00	8.79316E-05
2.16401E+00	1.39804E+00	9.92259E-05
2.17285E+00	1.39797E+00	1.08672E-04
2.18176E+00	1.39790E+00	1.26034E-04
2.19075E+00	1.39781E+00	1.39647E-04
2.19981E+00	1.39771E+00	1.81865E-04
2.20895E+00	1.39759E+00	2.30227E-04
2.21817E+00	1.39746E+00	3.31834E-04
2.22746E+00	1.39733E+00	5.05105E-04
2.23683E+00	1.39728E+00	7.80650E-04
2.24628E+00	1.39742E+00	1.11849E-03
2.25580E+00	1.39778E+00	1.19349E-03
2.26541E+00	1.39790E+00	1.21480E-03
2.27511E+00	1.39856E+00	1.02619E-03
2.28488E+00	1.39833E+00	4.79893E-04
2.29474E+00	1.39810E+00	3.55008E-04
2.30469E+00	1.39790E+00	3.18513E-04
2.31472E+00	1.39772E+00	3.74357E-04
2.32484E+00	1.39775E+00	5.41983E-04
2.33505E+00	1.39777E+00	3.82899E-04
2.34534E+00	1.39762E+00	3.59969E-04
2.35573E+00	1.39754E+00	3.79503E-04
2.36622E+00	1.39742E+00	3.75651E-04
2.37679E+00	1.39728E+00	5.03251E-04
2.38746E+00	1.39738E+00	6.73592E-04
2.39823E+00	1.39749E+00	5.89892E-04
2.40909E+00	1.39746E+00	4.71194E-04
2.42006E+00	1.39733E+00	3.79013E-04
2.43112E+00	1.39718E+00	3.95494E-04
2.44229E+00	1.39705E+00	4.56494E-04
2.45355E+00	1.39698E+00	5.95219E-04
2.46493E+00	1.39704E+00	7.20682E-04
2.47641E+00	1.39714E+00	6.76616E-04
2.48799E+00	1.39713E+00	6.15060E-04
2.49969E+00	1.39709E+00	5.52000E-04
2.51149E+00	1.39711E+00	5.15918E-04
2.52341E+00	1.39700E+00	3.39173E-04
2.53544E+00	1.39679E+00	3.07914E-04
2.54759E+00	1.39659E+00	3.66427E-04
2.55985E+00	1.39652E+00	5.96992E-04
2.57223E+00	1.39670E+00	7.05897E-04
2.58473E+00	1.39673E+00	3.90798E-04
2.59736E+00	1.39639E+00	3.54839E-04
2.61011E+00	1.39639E+00	6.27649E-04
2.62298E+00	1.39667E+00	5.58782E-04
2.63598E+00	1.39646E+00	2.64607E-04
2.64912E+00	1.39629E+00	2.08709E-04
2.66238E+00	1.39609E+00	2.33088E-04
2.67577E+00	1.39606E+00	2.34021E-04
2.68931E+00	1.39592E+00	2.24331E-04
2.70298E+00	1.39579E+00	1.61494E-04
2.71678E+00	1.39562E+00	1.49530E-04
2.73074E+00	1.39544E+00	1.79964E-04
2.74483E+00	1.39531E+00	2.18847E-04
2.75907E+00	1.39517E+00	2.32255E-04
2.77346E+00	1.39501E+00	2.32606E-04
2.78800E+00	1.39481E+00	2.78828E-04
2.80270E+00	1.39463E+00	3.85694E-04
2.81755E+00	1.39452E+00	5.70561E-04
2.83255E+00	1.39452E+00	6.80890E-04
2.84772E+00	1.39452E+00	6.78529E-04
2.86305E+00	1.39443E+00	6.36562E-04
2.87855E+00	1.39433E+00	6.63326E-04
2.89422E+00	1.39428E+00	6.10148E-04
2.91006E+00	1.39415E+00	5.18823E-04
2.92607E+00	1.39395E+00	4.43424E-04
2.94226E+00	1.39375E+00	3.96623E-04
2.95863E+00	1.39348E+00	3.60531E-04
2.97518E+00	1.39322E+00	3.56526E-04
2.99192E+00	1.39292E+00	3.87113E-04
3.00885E+00	1.39263E+00	4.38710E-04
3.02597E+00	1.39236E+00	5.51250E-04
3.04328E+00	1.39214E+00	5.59341E-04
3.06080E+00	1.39178E+00	5.79508E-04
3.07852E+00	1.39139E+00	6.51340E-04
3.09645E+00	1.39102E+00	7.81372E-04
3.11458E+00	1.39061E+00	8.61770E-04
3.13293E+00	1.39013E+00	9.77931E-04
3.15150E+00	1.38955E+00	1.12551E-03
3.17029E+00	1.38891E+00	1.35132E-03
3.18930E+00	1.38815E+00	1.68227E-03
3.20854E+00	1.38732E+00	2.13391E-03
3.22802E+00	1.38640E+00	2.74882E-03
3.24773E+00	1.38532E+00	3.47818E-03
3.26769E+00	1.38380E+00	4.43552E-03
3.28789E+00	1.38128E+00	6.50824E-03
3.30835E+00	1.37925E+00	1.15356E-02
3.32906E+00	1.38142E+00	1.93482E-02
3.35003E+00	1.39089E+00	1.85125E-02
3.37127E+00	1.38347E+00	2.33077E-02
3.39278E+00	1.40850E+00	2.27320E-02
3.41456E+00	1.40281E+00	1.72172E-02
3.43663E+00	1.40554E+00	1.03341E-02
3.45898E+00	1.40239E+00	6.27919E-03
3.48163E+00	1.39766E+00	6.41479E-03
3.50457E+00	1.39984E+00	1.96878E-02
3.52782E+00	1.40728E+00	4.55281E-03
3.55138E+00	1.40346E+00	2.23477E-03
3.57526E+00	1.40132E+00	1.32650E-03
3.59946E+00	1.39985E+00	9.48933E-04
3.62399E+00	1.39875E+00	7.12801E-04
3.64885E+00	1.39782E+00	6.22967E-04
3.67406E+00	1.39710E+00	5.68539E-04
3.69962E+00	1.39641E+00	5.01289E-04
3.72554E+00	1.39578E+00	5.08540E-04
3.75183E+00	1.39516E+00	5.71798E-04
3.77849E+00	1.39468E+00	8.61718E-04
3.80552E+00	1.39453E+00	1.08369E-03
3.83295E+00	1.39465E+00	8.91178E-04
3.86078E+00	1.39416E+00	4.87818E-04
3.88902E+00	1.39365E+00	4.04625E-04
3.91767E+00	1.39317E+00	3.51083E-04
3.94674E+00	1.39268E+00	3.69292E-04
3.97625E+00	1.39225E+00	5.42697E-04
4.00621E+00	1.39204E+00	6.40130E-04
4.03662E+00	1.39185E+00	6.29786E-04
4.06749E+00	1.39155E+00	4.25717E-04
4.09885E+00	1.39110E+00	3.83091E-04
4.13068E+00	1.39075E+00	3.30014E-04
4.16302E+00	1.39031E+00	2.77805E-04
4.19587E+00	1.38986E+00	2.68038E-04
4.22924E+00	1.38940E+00	2.84152E-04
4.26314E+00	1.38896E+00	3.78175E-04
4.29759E+00	1.38856E+00	5.08908E-04
4.33261E+00	1.38832E+00	5.28559E-04
4.36820E+00	1.38786E+00	3.86733E-04
4.40438E+00	1.38730E+00	4.32110E-04
4.44116E+00	1.38671E+00	5.74097E-04
4.47856E+00	1.38642E+00	9.49964E-04
4.51660E+00	1.38630E+00	9.85762E-04
4.55529E+00	1.38605E+00	5.58847E-04
4.59465E+00	1.38518E+00	3.84790E-04
4.63469E+00	1.38436E+00	6.61900E-04
4.67544E+00	1.38396E+00	1.12833E-03
4.71691E+00	1.38377E+00	1.07415E-03
4.75912E+00	1.38325E+00	1.08233E-03
4.80210E+00	1.38272E+00	1.16248E-03
4.84586E+00	1.38231E+00	1.09541E-03
4.89042E+00	1.38166E+00	9.76584E-04
4.93581E+00	1.38099E+00	1.18197E-03
4.98206E+00	1.38046E+00	8.74649E-04
5.02917E+00	1.37925E+00	9.66375E-04
5.07719E+00	1.37870E+00	1.55686E-03
5.12613E+00	1.37851E+00	1.39923E-03
5.17603E+00	1.37748E+00	9.12166E-04
5.22690E+00	1.37603E+00	9.01117E-04
5.27879E+00	1.37464E+00	1.52877E-03
5.33171E+00	1.37368E+00	2.32592E-03
5.38571E+00	1.37281E+00	3.64163E-03
5.44081E+00	1.37402E+00	3.89350E-03
5.49705E+00	1.37338E+00	3.37752E-03
5.55447E+00	1.37255E+00	1.76945E-03
5.61310E+00	1.37003E+00	1.93845E-03
5.67298E+00	1.36874E+00	2.66106E-03
5.73415E+00	1.36805E+00	3.99323E-03
5.79666E+00	1.36850E+00	2.37339E-03
5.86054E+00	1.36597E+00	1.32530E-03
5.92584E+00	1.36349E+00	1.17874E-03
5.99262E+00	1.36090E+00	1.44247E-03
6.06092E+00	1.35841E+00	1.99190E-03
6.13080E+00	1.35618E+00	2.66214E-03
6.20230E+00	1.35354E+00	3.22794E-03
6.27550E+00	1.35086E+00	3.63101E-03
6.35044E+00	1.34760E+00	4.73208E-03
6.42719E+00	1.34424E+00	5.13852E-03
6.50582E+00	1.33927E+00	6.71975E-03
6.58640E+00	1.33478E+00	9.07422E-03
6.66900E+00	1.32721E+00	1.24897E-02
6.75369E+00	1.31770E+00	2.51951E-02
6.84057E+00	1.33691E+00	4.39818E-02
6.92971E+00	1.34710E+00	2.84941E-02
7.02120E+00	1.33439E+00	2.73790E-02
7.11514E+00	1.33835E+00	1.24299E-02
7.21164E+00	1.32136E+00	9.01397E-03
7.31078E+00	1.30574E+00	8.62222E-03
7.41269E+00	1.28238E+00	9.68717E-03
7.51747E+00	1.23151E+00	3.18175E-02
7.62527E+00	1.31665E+00	1.43865E-01
7.73620E+00	1.25984E+00	2.77665E-02
7.85040E+00	1.13091E+00	7.46282E-02
7.96803E+00	1.24377E+00	3.85575E-01
8.08924E+00	1.60347E+00	2.42119E-01
8.21419E+00	1.45092E+00	4.76426E-02
8.34306E+00	1.36253E+00	6.12197E-02
8.47604E+00	1.40794E+00	1.00433E-01
8.61333E+00	1.38263E+00	4.10023E-02
8.75513E+00	1.33812E+00	2.86106E-02
8.90169E+00	1.29122E+00	3.17355E-02
9.05324E+00	1.23106E+00	4.32615E-02
9.21003E+00	1.11732E+00	8.38694E-02
9.37235E+00	1.00029E+00	4.19477E-01
9.54050E+00	1.29013E+00	5.00446E-01
9.71479E+00	1.71489E+00	7.06609E-01
9.89556E+00	1.80509E+00	1.31249E-01
1.00832E+01	1.62145E+00	3.87627E-02
1.02781E+01	1.53349E+00	2.53219E-02
1.04806E+01	1.46375E+00	2.36497E-02
1.06914E+01	1.36577E+00	5.08457E-02
1.09107E+01	1.39546E+00	3.18101E-01
1.11393E+01	1.59178E+00	1.91597E-01
1.13776E+01	1.56489E+00	3.59710E-02
1.16263E+01	1.47898E+00	1.99557E-02
1.18862E+01	1.38963E+00	3.20482E-02
1.21580E+01	1.33963E+00	3.81528E-01
1.24424E+01	1.54162E+00	8.11626E-02
1.27405E+01	1.69753E+00	2.67109E-01
1.30532E+01	1.60760E+00	2.25485E-02
1.33817E+01	1.54882E+00	1.08632E-02
1.37271E+01	1.50440E+00	1.20702E-02
1.40909E+01	1.57329E+00	8.63074E-02
1.44744E+01	1.53601E+00	8.53220E-03
1.48794E+01	1.51077E+00	3.02512E-03
1.53077E+01	1.49635E+00	2.84815E-03
1.57614E+01	1.48549E+00	2.65013E-03
1.62429E+01	1.47572E+00	2.95874E-03
1.67546E+01	1.46603E+00	3.34327E-03
1.72997E+01	1.45524E+00	3.71039E-03
1.78814E+01	1.44088E+00	4.94263E-03
1.85036E+01	1.42017E+00	7.75164E-03
1.91706E+01	1.36859E+00	2.15628E-02
1.98876E+01	1.37101E+00	2.81220E-01
2.06602E+01	1.49539E+00	6.85326E-02
2.14953E+01	1.50856E+00	1.14817E-01
2.24008E+01	1.50663E+00	7.02679E-02
2.33859E+01	1.45405E+00	6.45650E-02
2.44616E+01	1.58712E+00	1.45610E-01
