Material: organic / C3H9O3P - dimethyl methylphosphonate / Querry-NIR
Optical constants. M. R. Querry. Optical constants of minerals and other materials from the millimeter to the ultraviolet, Contractor Report CRDEC-CR-88009 (1987)
wavelength (um)	n	k
0.8045	1.412	.0000000
0.8145	1.412	.0000000
0.8245	1.411	.0000000
0.8345	1.411	.0000000
0.8445	1.411	.0000000
0.8545	1.411	.0000000
0.8645	1.411	.0000000
0.8745	1.411	.0000000
0.8845	1.411	.0000010
0.8945	1.411	.0000010
0.9045	1.411	.0000010
0.9145	1.411	.0000000
0.9245	1.411	.0000000
0.9345	1.411	.0000000
0.9445	1.411	.0000000
0.9545	1.411	.0000000
0.9645	1.411	.0000000
0.9745	1.411	.0000000
0.9845	1.411	.0000000
0.9945	1.411	.0000010
1.0045	1.411	.0000010
1.0145	1.411	.0000010
1.0245	1.411	.0000010
1.0345	1.410	.0000010
1.0445	1.410	.0000010
1.0545	1.410	.0000000
1.0645	1.410	.0000010
1.0745	1.410	.0000000
1.0845	1.410	.0000010
1.0945	1.410	.0000010
1.1045	1.410	.0000010
1.1145	1.410	.0000010
1.1245	1.410	.0000020
1.1345	1.410	.0000040
1.1445	1.410	.0000050
1.1545	1.410	.0000060
1.1645	1.410	.0000090
1.1745	1.410	.0000100
1.1845	1.410	.0000060
1.1945	1.410	.0000030
1.2045	1.410	.0000020
1.2145	1.410	.0000010
1.2245	1.410	.0000010
1.2345	1.410	.0000010
1.2445	1.410	.0000010
1.2545	1.410	.0000010
1.2645	1.410	.0000010
1.2745	1.409	.0000010
1.2845	1.409	.0000010
1.2945	1.409	.0000010
1.3045	1.409	.0000010
1.3145	1.409	.0000010
1.3245	1.409	.0000020
1.3345	1.409	.0000040
1.3445	1.409	.0000080
1.3545	1.409	.0000110
1.3645	1.409	.0000120
1.3745	1.409	.0000110
1.3845	1.409	.0000160
1.3945	1.409	.0000120
1.4045	1.409	.0000070
1.4145	1.409	.0000070
1.4245	1.409	.0000070
1.4345	1.409	.0000080
1.4445	1.409	.0000070
1.4545	1.409	.0000050
1.4645	1.409	.0000040
1.4745	1.409	.0000030
1.4845	1.409	.0000040
1.4945	1.409	.0000040
1.5045	1.408	.0000030
1.5145	1.408	.0000030
1.5245	1.408	.0000020
1.5345	1.408	.0000020
1.5445	1.408	.0000020
1.5545	1.408	.0000020
1.5645	1.408	.0000020
1.5745	1.408	.0000030
1.6095	1.408	.0000060
1.6195	1.408	.0000080
1.6295	1.408	.0000110
1.6395	1.408	.0000150
1.6495	1.408	.0000210
1.6595	1.408	.0000420
1.6695	1.408	.0000790
1.6795	1.408	.0000940
1.6895	1.408	.0000720
1.6995	1.408	.0000560
1.7095	1.408	.0000720
1.7295	1.408	.0000920
1.7295	1.408	.0000930
1.7395	1.408	.0000470
1.7495	1.408	.0000410
1.7595	1.407	.0000250
1.7695	1.407	.0000260
1.7795	1.407	.0000290
1.7895	1.407	.0000260
1.7995	1.407	.0000230
1.8095	1.407	.0000210
1.8195	1.407	.0000180
1.8295	1.407	.0000160
1.8395	1.407	.0000160
1.8495	1.407	.0000160
1.8595	1.407	.0000180
1.8695	1.407	.0000180
1.8795	1.407	.0000180
1.8895	1.407	.0000190
1.8995	1.407	.0000160
1.9095	1.407	.0000160
1.9195	1.407	.0000190
1.9295	1.407	.0000170
1.9395	1.407	.0000150
1.9495	1.406	.0000150
1.9595	1.406	.0000140
1.9695	1.406	.0000130
1.9795	1.406	.0000120
1.9895	1.406	.0000120
1.9995	1.406	.0000120
2.0095	1.406	.0000120
2.0195	1.406	.0000130
2.0295	1.406	.0000140
2.0395	1.406	.0000150
2.0495	1.406	.0000160
2.0595	1.406	.0000170
2.0695	1.406	.0000210
2.0795	1.406	.0000260
2.0895	1.406	.0000290
2.0995	1.406	.0000300
2.1095	1.405	.0000330
2.1195	1.405	.0000390
2.1295	1.405	.0000460
2.1395	1.405	.0000490
2.1495	1.405	.0000550
2.1595	1.405	.0000690
2.1695	1.405	.0000820
2.1795	1.405	.0000970
2.1895	1.405	.0001210
2.1995	1.405	.0001620
2.2095	1.405	.0002310
2.2195	1.404	.0003520
2.2295	1.404	.0005780
2.2395	1.404	.0009060
2.2495	1.405	.0012150
2.2595	1.405	.0011680
2.2695	1.405	.0013400
2.2795	1.405	.0005950
2.2895	1.405	.0003710
2.2995	1.405	.0003070
2.3095	1.405	.0003150
2.3195	1.405	.0004740
2.3295	1.405	.0004260
2.3395	1.404	.0003300
2.3495	1.404	.0003500
2.3595	1.404	.0003490
2.3695	1.404	.0003780
2.3795	1.404	.0005580
2.3895	1.404	.0006370
2.3995	1.404	.0005380
2.4095	1.404	.0004220
2.4195	1.404	.0003560
2.4295	1.404	.0003650
2.4395	1.404	.0004210
2.4495	1.404	.0005290
2.4595	1.404	.0006670
2.4695	1.404	.0006870
2.4795	1.404	.0006320
2.4895	1.404	.0005740
2.4995	1.404	.0005350
