Material: organic / C7H8 - toluene / Myers
Optical constants. T. L. Myers, R. G. Tonkyn, T. O. Danby, M. S. Taubman, B. E. Bernacki, J. C. Birnbaum, S. W. Sharpe, T. J. Johnson. Accurate measurement of the optical constants n and k for a series of 57 inorganic and organic liquids for optical modeling and detection, Appl. Spectrosc. 72, 535-550 (2018) (see Supplemental Material for numerical data)
Comments: Isopropanol. 26 Â°C.
Specs: {"n_absolute": true, "wavelength_vacuum": true, "temperature": "26 Â°C"}
wavelength (um)	n	k
1.28246E+00	1.47459E+00	9.02100E-06
1.28556E+00	1.47459E+00	9.68700E-06
1.28868E+00	1.47460E+00	9.69800E-06
1.29181E+00	1.47460E+00	8.00300E-06
1.29495E+00	1.47459E+00	9.44800E-06
1.29812E+00	1.47459E+00	8.09800E-06
1.30129E+00	1.47459E+00	7.79000E-06
1.30448E+00	1.47459E+00	9.39700E-06
1.30769E+00	1.47459E+00	9.73000E-06
1.31091E+00	1.47459E+00	1.00800E-05
1.31415E+00	1.47458E+00	1.07000E-05
1.31741E+00	1.47458E+00	1.10300E-05
1.32068E+00	1.47458E+00	9.79600E-06
1.32397E+00	1.47458E+00	1.09600E-05
1.32727E+00	1.47458E+00	1.21800E-05
1.33059E+00	1.47458E+00	1.21500E-05
1.33393E+00	1.47458E+00	1.25500E-05
1.33728E+00	1.47458E+00	1.23700E-05
1.34066E+00	1.47457E+00	1.16900E-05
1.34404E+00	1.47457E+00	1.14400E-05
1.34745E+00	1.47457E+00	1.18000E-05
1.35087E+00	1.47457E+00	1.13800E-05
1.35431E+00	1.47457E+00	1.22700E-05
1.35777E+00	1.47456E+00	1.27300E-05
1.36124E+00	1.47456E+00	1.36500E-05
1.36474E+00	1.47456E+00	1.40600E-05
1.36825E+00	1.47456E+00	1.18600E-05
1.37178E+00	1.47456E+00	1.20500E-05
1.37533E+00	1.47455E+00	1.47300E-05
1.37889E+00	1.47455E+00	1.58300E-05
1.38248E+00	1.47455E+00	1.70400E-05
1.38608E+00	1.47455E+00	1.63200E-05
1.38970E+00	1.47455E+00	1.55600E-05
1.39334E+00	1.47455E+00	1.50100E-05
1.39700E+00	1.47455E+00	1.52800E-05
1.40068E+00	1.47455E+00	1.63300E-05
1.40438E+00	1.47454E+00	1.54300E-05
1.40810E+00	1.47454E+00	1.48700E-05
1.41184E+00	1.47454E+00	1.51600E-05
1.41559E+00	1.47454E+00	1.42400E-05
1.41937E+00	1.47454E+00	1.32500E-05
1.42317E+00	1.47453E+00	1.26500E-05
1.42699E+00	1.47453E+00	1.27800E-05
1.43083E+00	1.47453E+00	1.35100E-05
1.43469E+00	1.47453E+00	1.33700E-05
1.43857E+00	1.47453E+00	1.34700E-05
1.44247E+00	1.47452E+00	1.30100E-05
1.44639E+00	1.47452E+00	1.24000E-05
1.45034E+00	1.47452E+00	1.18700E-05
1.45430E+00	1.47452E+00	1.07000E-05
1.45829E+00	1.47451E+00	1.10200E-05
1.46230E+00	1.47451E+00	1.09900E-05
1.46633E+00	1.47451E+00	1.10300E-05
1.47039E+00	1.47451E+00	1.11300E-05
1.47446E+00	1.47450E+00	1.08100E-05
1.47856E+00	1.47450E+00	1.09700E-05
1.48269E+00	1.47450E+00	1.14100E-05
1.48683E+00	1.47450E+00	1.11200E-05
1.49100E+00	1.47449E+00	1.08200E-05
1.49519E+00	1.47449E+00	1.03300E-05
1.49941E+00	1.47449E+00	9.86800E-06
1.50365E+00	1.47448E+00	1.01400E-05
1.50791E+00	1.47448E+00	9.47200E-06
1.51220E+00	1.47448E+00	9.42700E-06
1.51651E+00	1.47447E+00	9.41400E-06
1.52085E+00	1.47447E+00	8.95800E-06
1.52521E+00	1.47447E+00	8.94100E-06
1.52959E+00	1.47446E+00	8.86600E-06
1.53401E+00	1.47446E+00	8.79200E-06
1.53844E+00	1.47446E+00	8.71500E-06
1.54291E+00	1.47445E+00	8.54500E-06
1.54740E+00	1.47445E+00	8.58600E-06
1.55191E+00	1.47445E+00	8.67300E-06
1.55645E+00	1.47444E+00	8.19800E-06
1.56102E+00	1.47444E+00	7.98500E-06
1.56562E+00	1.47444E+00	7.80700E-06
1.57024E+00	1.47443E+00	7.79100E-06
1.57489E+00	1.47443E+00	7.43100E-06
1.57957E+00	1.47442E+00	6.99700E-06
1.58427E+00	1.47442E+00	7.61400E-06
1.58901E+00	1.47441E+00	7.27700E-06
1.59377E+00	1.47441E+00	7.19000E-06
1.59856E+00	1.47440E+00	7.06400E-06
1.60338E+00	1.47440E+00	6.84800E-06
1.60823E+00	1.47439E+00	7.49200E-06
1.61310E+00	1.47438E+00	7.96800E-06
1.61801E+00	1.47437E+00	9.30200E-06
1.62295E+00	1.47436E+00	1.37500E-05
1.62792E+00	1.47436E+00	1.85500E-05
1.63292E+00	1.47435E+00	2.52900E-05
1.63794E+00	1.47435E+00	2.64000E-05
1.64300E+00	1.47434E+00	3.17800E-05
1.64810E+00	1.47434E+00	2.98100E-05
1.65322E+00	1.47432E+00	2.57700E-05
1.65837E+00	1.47429E+00	3.83100E-05
1.66356E+00	1.47427E+00	7.20000E-05
1.66878E+00	1.47427E+00	1.11200E-04
1.67403E+00	1.47429E+00	1.61800E-04
1.67932E+00	1.47434E+00	1.82800E-04
1.68464E+00	1.47439E+00	1.53600E-04
1.68999E+00	1.47438E+00	1.40000E-04
1.69538E+00	1.47441E+00	1.41800E-04
1.70080E+00	1.47441E+00	1.22200E-04
1.70626E+00	1.47444E+00	1.02200E-04
1.71175E+00	1.47443E+00	6.22900E-05
1.71728E+00	1.47440E+00	4.68100E-05
1.72284E+00	1.47438E+00	5.12600E-05
1.72844E+00	1.47438E+00	5.53300E-05
1.73408E+00	1.47437E+00	5.15300E-05
1.73975E+00	1.47436E+00	5.46000E-05
1.74546E+00	1.47436E+00	5.69400E-05
1.75121E+00	1.47436E+00	5.15000E-05
1.75699E+00	1.47436E+00	4.46200E-05
1.76282E+00	1.47435E+00	4.21100E-05
1.76868E+00	1.47434E+00	4.84000E-05
1.77458E+00	1.47435E+00	4.65600E-05
1.78052E+00	1.47435E+00	3.17000E-05
1.78650E+00	1.47434E+00	2.52700E-05
1.79252E+00	1.47433E+00	2.19900E-05
1.79859E+00	1.47432E+00	1.90600E-05
1.80469E+00	1.47431E+00	1.79800E-05
1.81083E+00	1.47430E+00	1.76500E-05
1.81702E+00	1.47430E+00	1.72100E-05
1.82325E+00	1.47429E+00	1.43900E-05
1.82952E+00	1.47428E+00	1.08800E-05
1.83584E+00	1.47427E+00	1.29700E-05
1.84220E+00	1.47426E+00	1.40300E-05
1.84860E+00	1.47425E+00	1.49200E-05
1.85505E+00	1.47425E+00	1.57000E-05
1.86154E+00	1.47424E+00	1.73000E-05
1.86808E+00	1.47423E+00	1.83300E-05
1.87466E+00	1.47423E+00	2.01800E-05
1.88130E+00	1.47423E+00	1.76700E-05
1.88797E+00	1.47422E+00	1.56600E-05
1.89470E+00	1.47421E+00	1.37700E-05
1.90147E+00	1.47420E+00	1.15300E-05
1.90830E+00	1.47419E+00	1.18500E-05
1.91517E+00	1.47419E+00	1.07000E-05
1.92209E+00	1.47418E+00	9.68900E-06
1.92906E+00	1.47417E+00	8.69400E-06
1.93609E+00	1.47416E+00	7.09700E-06
1.94316E+00	1.47415E+00	8.77900E-06
1.95029E+00	1.47414E+00	9.32200E-06
1.95746E+00	1.47413E+00	9.01600E-06
1.96469E+00	1.47412E+00	9.08900E-06
1.97198E+00	1.47411E+00	8.64400E-06
1.97932E+00	1.47410E+00	9.41700E-06
1.98671E+00	1.47409E+00	1.03800E-05
1.99416E+00	1.47408E+00	1.08900E-05
2.00167E+00	1.47407E+00	1.37600E-05
2.00923E+00	1.47406E+00	1.72600E-05
2.01685E+00	1.47405E+00	1.81500E-05
2.02453E+00	1.47404E+00	1.70400E-05
2.03226E+00	1.47403E+00	1.54600E-05
2.04006E+00	1.47402E+00	1.31200E-05
2.04792E+00	1.47400E+00	1.13500E-05
2.05583E+00	1.47399E+00	1.25500E-05
2.06381E+00	1.47397E+00	1.30700E-05
2.07185E+00	1.47396E+00	1.13100E-05
2.07995E+00	1.47394E+00	1.13300E-05
2.08812E+00	1.47392E+00	1.29600E-05
2.09635E+00	1.47390E+00	1.63900E-05
2.10465E+00	1.47387E+00	1.93100E-05
2.11301E+00	1.47384E+00	2.53800E-05
2.12144E+00	1.47381E+00	3.64500E-05
2.12993E+00	1.47375E+00	6.25400E-05
2.13850E+00	1.47371E+00	1.73400E-04
2.14713E+00	1.47383E+00	1.76100E-04
2.15583E+00	1.47378E+00	2.20300E-04
2.16461E+00	1.47380E+00	2.85300E-04
2.17346E+00	1.47398E+00	2.08700E-04
2.18237E+00	1.47388E+00	1.61900E-04
2.19137E+00	1.47394E+00	1.39600E-04
2.20043E+00	1.47389E+00	7.91300E-05
2.20958E+00	1.47384E+00	6.51100E-05
2.21879E+00	1.47379E+00	6.83100E-05
2.22809E+00	1.47376E+00	7.04700E-05
2.23746E+00	1.47370E+00	7.77300E-05
2.24692E+00	1.47365E+00	1.07100E-04
2.25645E+00	1.47362E+00	1.54600E-04
2.26606E+00	1.47359E+00	2.15400E-04
2.27576E+00	1.47363E+00	2.91800E-04
2.28554E+00	1.47368E+00	2.82000E-04
2.29541E+00	1.47368E+00	2.80300E-04
2.30536E+00	1.47367E+00	2.75600E-04
2.31539E+00	1.47365E+00	3.25000E-04
2.32552E+00	1.47372E+00	3.20500E-04
2.33573E+00	1.47370E+00	2.63500E-04
2.34603E+00	1.47367E+00	3.62200E-04
2.35643E+00	1.47375E+00	3.34300E-04
2.36692E+00	1.47378E+00	2.13600E-04
2.37750E+00	1.47372E+00	1.75500E-04
2.38817E+00	1.47365E+00	1.65300E-04
2.39895E+00	1.47359E+00	1.43800E-04
2.40982E+00	1.47354E+00	1.42100E-04
2.42078E+00	1.47347E+00	1.65900E-04
2.43185E+00	1.47337E+00	1.93100E-04
2.44302E+00	1.47318E+00	2.68100E-04
2.45430E+00	1.47322E+00	6.81400E-04
2.46568E+00	1.47353E+00	8.02500E-04
2.47716E+00	1.47375E+00	9.64200E-04
2.48875E+00	1.47401E+00	3.29600E-04
2.50046E+00	1.47383E+00	2.19600E-04
2.51227E+00	1.47368E+00	2.07100E-04
2.52419E+00	1.47361E+00	1.80700E-04
2.53623E+00	1.47358E+00	1.81500E-04
2.54838E+00	1.47352E+00	2.03100E-04
2.56065E+00	1.47350E+00	1.90800E-04
2.57304E+00	1.47347E+00	1.75300E-04
2.58555E+00	1.47343E+00	2.04900E-04
2.59818E+00	1.47340E+00	2.37100E-04
2.61094E+00	1.47344E+00	1.87500E-04
2.62382E+00	1.47338E+00	1.60400E-04
2.63683E+00	1.47332E+00	1.35600E-04
2.64997E+00	1.47332E+00	9.41900E-05
2.66324E+00	1.47324E+00	7.22100E-05
2.67664E+00	1.47314E+00	8.55900E-05
2.69018E+00	1.47311E+00	1.02700E-04
2.70386E+00	1.47306E+00	9.58000E-05
2.71767E+00	1.47298E+00	1.37000E-04
2.73163E+00	1.47291E+00	1.57900E-04
2.74573E+00	1.47301E+00	1.94100E-04
2.75998E+00	1.47292E+00	1.44600E-04
2.77438E+00	1.47282E+00	8.09700E-05
2.78893E+00	1.47272E+00	1.85600E-04
2.80363E+00	1.47270E+00	1.03600E-04
2.81849E+00	1.47264E+00	1.47200E-04
2.83351E+00	1.47255E+00	1.12100E-04
2.84869E+00	1.47249E+00	1.21700E-04
2.86403E+00	1.47239E+00	1.26000E-04
2.87953E+00	1.47229E+00	1.32500E-04
2.89521E+00	1.47218E+00	1.64200E-04
2.91106E+00	1.47214E+00	2.09100E-04
2.92708E+00	1.47204E+00	1.73000E-04
2.94328E+00	1.47191E+00	1.88800E-04
2.95966E+00	1.47182E+00	2.00900E-04
2.97622E+00	1.47168E+00	1.73000E-04
2.99297E+00	1.47151E+00	1.83000E-04
3.00991E+00	1.47135E+00	1.96500E-04
3.02704E+00	1.47116E+00	1.91900E-04
3.04437E+00	1.47095E+00	1.88000E-04
3.06189E+00	1.47070E+00	1.86000E-04
3.07963E+00	1.47039E+00	1.77400E-04
3.09756E+00	1.47002E+00	1.95200E-04
3.11571E+00	1.46955E+00	1.73900E-04
3.13407E+00	1.46898E+00	2.98300E-04
3.15265E+00	1.46825E+00	4.59300E-04
3.17145E+00	1.46747E+00	5.22700E-04
3.19047E+00	1.46601E+00	7.36300E-04
3.20973E+00	1.46378E+00	2.06700E-03
3.22922E+00	1.46119E+00	3.89000E-03
3.24895E+00	1.46443E+00	7.51600E-03
3.26892E+00	1.46582E+00	1.33700E-02
3.28913E+00	1.46155E+00	1.34500E-02
3.30960E+00	1.48436E+00	2.35600E-02
3.33033E+00	1.47940E+00	9.24000E-03
3.35131E+00	1.47555E+00	8.07300E-03
3.37256E+00	1.47449E+00	8.29800E-03
3.39409E+00	1.47545E+00	1.03700E-02
3.41589E+00	1.47463E+00	1.34600E-02
3.43797E+00	1.48532E+00	9.08900E-03
3.46034E+00	1.47992E+00	5.62400E-03
3.48300E+00	1.48090E+00	8.16100E-03
3.50596E+00	1.48448E+00	5.13300E-03
3.52923E+00	1.48225E+00	1.60500E-03
3.55280E+00	1.48048E+00	9.29500E-04
3.57670E+00	1.47952E+00	5.96900E-04
3.60092E+00	1.47867E+00	4.21800E-04
3.62546E+00	1.47795E+00	3.24400E-04
3.65035E+00	1.47701E+00	9.38600E-04
3.67558E+00	1.47788E+00	3.44100E-04
3.70115E+00	1.47724E+00	1.34100E-04
3.72709E+00	1.47683E+00	1.03300E-04
3.75340E+00	1.47650E+00	1.07700E-04
3.78007E+00	1.47623E+00	1.52500E-04
3.80713E+00	1.47606E+00	2.02700E-04
3.83458E+00	1.47581E+00	2.75900E-04
3.86243E+00	1.47556E+00	5.07000E-04
3.89069E+00	1.47578E+00	1.26500E-04
3.91936E+00	1.47548E+00	1.45000E-04
3.94846E+00	1.47540E+00	1.19700E-04
3.97800E+00	1.47517E+00	1.28100E-04
4.00797E+00	1.47506E+00	1.62600E-04
4.03841E+00	1.47493E+00	1.49900E-04
4.06931E+00	1.47482E+00	1.76300E-04
4.10069E+00	1.47463E+00	1.83000E-04
4.13255E+00	1.47449E+00	3.14400E-04
4.16491E+00	1.47458E+00	2.74800E-04
4.19779E+00	1.47452E+00	2.45600E-04
4.23118E+00	1.47411E+00	4.20700E-04
4.26512E+00	1.47423E+00	3.14700E-04
4.29960E+00	1.47439E+00	2.25500E-04
4.33464E+00	1.47441E+00	2.82700E-04
4.37026E+00	1.47408E+00	2.95200E-04
4.40647E+00	1.47402E+00	2.11500E-04
4.44329E+00	1.47407E+00	1.64300E-04
4.48072E+00	1.47387E+00	8.84400E-05
4.51879E+00	1.47362E+00	9.64600E-05
4.55752E+00	1.47350E+00	1.09500E-04
4.59691E+00	1.47342E+00	1.16700E-04
4.63699E+00	1.47353E+00	1.51200E-04
4.67778E+00	1.47323E+00	3.62900E-05
4.71929E+00	1.47302E+00	6.82500E-05
4.76154E+00	1.47288E+00	3.91500E-05
4.80455E+00	1.47266E+00	4.94900E-05
4.84835E+00	1.47249E+00	5.83200E-05
4.89296E+00	1.47219E+00	4.12500E-05
4.93840E+00	1.47186E+00	1.21100E-04
4.98468E+00	1.47155E+00	3.02700E-04
5.03184E+00	1.47127E+00	5.84000E-04
5.07991E+00	1.47014E+00	9.89100E-04
5.12890E+00	1.47037E+00	2.83500E-03
5.17884E+00	1.47362E+00	1.64500E-03
5.22977E+00	1.47211E+00	4.71500E-04
5.28171E+00	1.47095E+00	6.62500E-04
5.33469E+00	1.47025E+00	2.51400E-03
5.38874E+00	1.47259E+00	4.02900E-03
5.44390E+00	1.47190E+00	9.75300E-04
5.50020E+00	1.47082E+00	1.63000E-03
5.55768E+00	1.47267E+00	3.39100E-03
5.61637E+00	1.47197E+00	1.19800E-03
5.67631E+00	1.47133E+00	7.35000E-04
5.73755E+00	1.46997E+00	1.45200E-03
5.80013E+00	1.47122E+00	1.07500E-03
5.86408E+00	1.47000E+00	6.52100E-04
5.92946E+00	1.46924E+00	6.29500E-04
5.99631E+00	1.46838E+00	3.50600E-04
6.06469E+00	1.46673E+00	5.43900E-04
6.13465E+00	1.46326E+00	2.18400E-03
6.20624E+00	1.45707E+00	5.44400E-03
6.27952E+00	1.47330E+00	4.66300E-03
6.35455E+00	1.46888E+00	4.48900E-03
6.43139E+00	1.46658E+00	2.48900E-03
6.51012E+00	1.46254E+00	3.91200E-03
6.59080E+00	1.45810E+00	5.33100E-03
6.67350E+00	1.41306E+00	4.50800E-02
6.75831E+00	1.47681E+00	1.31200E-02
6.84530E+00	1.47854E+00	2.68400E-02
6.93455E+00	1.49074E+00	1.32300E-02
7.02617E+00	1.48492E+00	5.98500E-03
7.12023E+00	1.48101E+00	3.73600E-03
7.21686E+00	1.47628E+00	6.38300E-03
7.31613E+00	1.48234E+00	2.99100E-03
7.41818E+00	1.47958E+00	1.31400E-03
7.52312E+00	1.47790E+00	9.69600E-04
7.63107E+00	1.47696E+00	1.01700E-03
7.74216E+00	1.47544E+00	2.52500E-04
7.85653E+00	1.47405E+00	6.57500E-04
7.97433E+00	1.47346E+00	1.30000E-03
8.09572E+00	1.47330E+00	4.65100E-04
8.22086E+00	1.47093E+00	5.94200E-04
8.34993E+00	1.47055E+00	1.13800E-03
8.48312E+00	1.46995E+00	8.28300E-03
8.62063E+00	1.47081E+00	2.88100E-03
8.76267E+00	1.47058E+00	1.17500E-03
8.90946E+00	1.46725E+00	8.53600E-04
9.06126E+00	1.46639E+00	4.61300E-03
9.21832E+00	1.45308E+00	1.65600E-02
9.38092E+00	1.47242E+00	4.83600E-03
9.54937E+00	1.46449E+00	1.11500E-02
9.72397E+00	1.49230E+00	2.72100E-02
9.90507E+00	1.47699E+00	3.19900E-03
1.00931E+01	1.47355E+00	2.63900E-03
1.02883E+01	1.47212E+00	2.54700E-03
1.04913E+01	1.47088E+00	1.83200E-03
1.07024E+01	1.46869E+00	8.76100E-04
1.09222E+01	1.46598E+00	5.31500E-04
1.11512E+01	1.46271E+00	6.53500E-03
1.13900E+01	1.46338E+00	5.51800E-04
1.16393E+01	1.45963E+00	5.14300E-04
1.18997E+01	1.45685E+00	2.29100E-03
1.21721E+01	1.45139E+00	3.78100E-04
1.24572E+01	1.44337E+00	7.91400E-04
1.27560E+01	1.43385E+00	4.93200E-03
1.30694E+01	1.40824E+00	3.14000E-03
1.33987E+01	1.33833E+00	2.14900E-02
1.37450E+01	1.65250E+00	5.90600E-01
1.41097E+01	1.52671E+00	1.78300E-02
1.44942E+01	1.67494E+00	8.54600E-02
1.49003E+01	1.55525E+00	8.42000E-03
1.53298E+01	1.52708E+00	1.64800E-03
1.57848E+01	1.51365E+00	1.00300E-03
1.62676E+01	1.50774E+00	1.17900E-03
1.67809E+01	1.50161E+00	2.72600E-04
1.73276E+01	1.49700E+00	3.18300E-04
1.79112E+01	1.49311E+00	6.15000E-04
1.85354E+01	1.48885E+00	1.28500E-03
1.92048E+01	1.48704E+00	7.39400E-03
1.99242E+01	1.48092E+00	9.87600E-04
2.06997E+01	1.46355E+00	2.56500E-03
2.15380E+01	1.49032E+00	2.71300E-01
2.24471E+01	1.52215E+00	4.56700E-03
2.34363E+01	1.50542E+00	5.15800E-03
2.45167E+01	1.50333E+00	6.49800E-03
