Material: glass / cdgm / D-LAF050
Optical constants. CDGM Zemax catalog 2017-09 (obtained from http://www.cdgmgd.com)
Specs: {"n_absolute": false, "wavelength_vacuum": false, "temperature": "20.0 °C", "thermal_dispersion": [{"type": "Schott formula", "coefficients": "4.02e-06 1.48e-08 -2.59e-11 7.08e-07 1.19e-10 0.135"}], "nd": 1.768419, "Vd": 49.290155, "glass_code": 768493, "density": "4.51 g/cm3", "thermal_expansion": [{"temperature_range": "-30 70 °C", "coefficient": "5.7e-06 K-1"}, {"temperature_range": "20 300 °C", "coefficient": "7.4e-06 K-1"}], "dPgF": -0.0109, "climatic_resistance": 1.0}
Dispersion formula 3, range 0.365 1.014 um, coefficients 3.0588612 -0.014713037 2 0.023619508 -2 0.00067085861 -4 -2.760135e-05 -6 2.1299817e-06 -8
wavelength (um)	k
0.290	6.1369E-06
0.300	4.3750E-06
0.310	3.6255E-06
0.320	2.2091E-06
0.330	1.5226E-06
0.340	1.0040E-06
0.350	6.5654E-07
0.360	4.3208E-07
0.370	2.7445E-07
0.380	1.8068E-07
0.390	1.2993E-07
0.400	1.0024E-07
0.420	7.0935E-08
0.440	5.6476E-08
0.460	4.7899E-08
0.480	3.8389E-08
0.500	2.7950E-08
0.550	1.7542E-08
0.600	1.9137E-08
0.650	2.0732E-08
0.700	1.6736E-08
0.800	1.9127E-08
0.850	1.3542E-08
0.900	1.4338E-08
0.950	1.5135E-08
1.000	1.5931E-08
1.060	1.6887E-08
1.200	1.9118E-08
1.400	2.2304E-08
1.600	2.5490E-08
1.800	1.2950E-07
2.000	5.5054E-07
2.200	1.6319E-06
2.400	7.3656E-06
