Material: glass / cdgm / H-BAF6
Optical constants. CDGM Zemax catalog 2017-09 (obtained from http://www.cdgmgd.com)
Specs: {"n_absolute": false, "wavelength_vacuum": false, "temperature": "20.0 °C", "thermal_dispersion": [{"type": "Schott formula", "coefficients": "-3.02e-06 1.55e-08 -1.32e-10 6.09e-07 9.44e-10 0.233"}], "nd": 1.608015, "Vd": 46.220006, "glass_code": 608462, "density": "3.11 g/cm3", "thermal_expansion": [{"temperature_range": "-30 70 °C", "coefficient": "8.2e-06 K-1"}, {"temperature_range": "20 300 °C", "coefficient": "9.4e-06 K-1"}], "dPgF": -0.0009, "climatic_resistance": 1.0}
Dispersion formula 3, range 0.365 1.014 um, coefficients 2.53242221 -0.00913744794 2 0.0181613436 -2 0.000464889992 -4 -9.77023624e-06 -6 2.46562672e-06 -8
wavelength (um)	k
0.340	9.3987E-06
0.350	4.9353E-06
0.360	1.6662E-06
0.370	6.4233E-07
0.380	2.9851E-07
0.390	1.6246E-07
0.400	9.6955E-08
0.420	5.3908E-08
0.440	4.5817E-08
0.460	3.3094E-08
0.480	3.4533E-08
0.500	3.1959E-08
0.550	3.0745E-08
0.600	3.3540E-08
0.650	4.1547E-08
0.700	4.4743E-08
0.800	3.1911E-08
0.850	1.3542E-08
0.900	1.4338E-08
0.950	1.5135E-08
1.000	1.5931E-08
1.060	1.6887E-08
1.200	1.9118E-08
1.400	1.2323E-07
1.600	1.1511E-07
1.800	4.0679E-07
2.000	8.6670E-07
2.200	2.2978E-06
2.400	3.6740E-06
