Material: glass / cdgm / H-F51
Optical constants. CDGM Zemax catalog 2017-09 (obtained from http://www.cdgmgd.com)
Specs: {"n_absolute": false, "wavelength_vacuum": false, "temperature": "20.0 °C", "nd": 1.639802, "Vd": 34.486325, "glass_code": 640345, "density": "2.76 g/cm3", "thermal_expansion": [{"temperature_range": "-30 70 °C", "coefficient": "8.4e-06 K-1"}, {"temperature_range": "20 300 °C", "coefficient": "1.02e-05 K-1"}], "dPgF": 0.005, "climatic_resistance": 1.0}
Dispersion formula 3, range 0.4047 0.7065 um, coefficients 2.6334392 -0.023786997 2 0.013503973 -2 0.0039049789 -4 -0.0004141067 -6 2.7097419e-05 -8
wavelength (um)	k
0.360	9.2214E-06
0.370	3.0911E-06
0.380	1.1221E-06
0.390	4.9709E-07
0.400	2.4816E-07
0.420	9.4918E-08
0.440	6.0036E-08
0.460	4.7899E-08
0.480	3.8389E-08
0.500	3.1959E-08
0.550	2.1939E-08
0.600	2.3933E-08
0.650	2.5928E-08
0.700	2.2326E-08
0.800	1.2745E-08
0.850	1.3542E-08
0.900	1.4338E-08
0.950	1.5135E-08
1.000	1.5931E-08
1.060	1.6887E-08
1.200	1.9118E-08
1.400	2.2304E-08
1.600	3.8255E-08
1.800	3.6265E-07
2.000	8.1636E-07
2.200	2.1586E-06
2.400	3.0814E-06
