Material: glass / cdgm / H-K9Lstar
Optical constants. CDGM Zemax catalog 2017-09 (obtained from http://www.cdgmgd.com)
Specs: {"n_absolute": false, "wavelength_vacuum": false, "temperature": "20.0 °C", "thermal_dispersion": [{"type": "Schott formula", "coefficients": "-1.13e-06 1.97e-08 -4.03e-11 4.17e-07 -1.86e-10 0.214"}], "nd": 1.516797, "Vd": 64.212351, "glass_code": 517642, "glass_status": "standard", "density": "2.52 g/cm3", "thermal_expansion": [{"temperature_range": "-30 70 °C", "coefficient": "7.6e-06 K-1"}, {"temperature_range": "20 300 °C", "coefficient": "9.5e-06 K-1"}], "dPgF": -0.0023, "climatic_resistance": 2.0}
Dispersion formula 3, range 0.365 1.711 um, coefficients 2.27196941 -0.00991721869 2 0.0103697525 -2 0.000311903798 -4 -2.64582145e-05 -6 1.64750848e-06 -8
wavelength (um)	k
0.290	8.4225E-06
0.300	5.0028E-06
0.310	2.4065E-06
0.320	1.1484E-06
0.330	5.6311E-07
0.340	2.9109E-07
0.350	1.4286E-07
0.360	7.5470E-08
0.370	4.4500E-08
0.380	3.9569E-08
0.390	2.1801E-08
0.400	1.2758E-08
0.420	1.0042E-08
0.440	1.0520E-08
0.460	1.0998E-08
0.480	1.1476E-08
0.500	1.1955E-08
0.550	1.3150E-08
0.600	1.4345E-08
0.650	1.5541E-08
0.700	1.6736E-08
0.800	1.9127E-08
0.850	2.0323E-08
0.900	2.8705E-08
0.950	3.0300E-08
1.000	3.1895E-08
1.060	3.3809E-08
1.200	3.8274E-08
1.400	2.1371E-07
1.600	1.2796E-07
1.800	4.2154E-07
2.000	1.0357E-06
2.200	2.8658E-06
2.400	4.3335E-06
