Material: glass / cdgm / H-LAF53
Optical constants. CDGM Zemax catalog 2017-09 (obtained from http://www.cdgmgd.com)
Specs: {"n_absolute": false, "wavelength_vacuum": false, "temperature": "20.0 °C", "thermal_dispersion": [{"type": "Schott formula", "coefficients": "7.84e-06 1.78e-08 -1.78e-11 6.13e-07 7.28e-10 0.217"}], "nd": 1.743305, "Vd": 49.238028, "glass_code": 743492, "glass_status": "standard", "density": "4.16 g/cm3", "thermal_expansion": [{"temperature_range": "-30 70 °C", "coefficient": "5.5e-06 K-1"}, {"temperature_range": "20 300 °C", "coefficient": "7.3e-06 K-1"}], "dPgF": -0.0109, "climatic_resistance": 1.0}
Dispersion formula 3, range 0.365 1.014 um, coefficients 2.96765171 -0.0109098989 2 0.0265455309 -2 -0.000515952248 -4 0.000124492897 -6 -5.16337751e-06 -8
wavelength (um)	k
0.300	1.0994E-05
0.310	6.9404E-06
0.320	4.5123E-06
0.330	2.9922E-06
0.340	1.8754E-06
0.350	1.1998E-06
0.360	7.1179E-07
0.370	4.4408E-07
0.380	2.8519E-07
0.390	1.9203E-07
0.400	1.4323E-07
0.420	1.0180E-07
0.440	8.1473E-08
0.460	5.9043E-08
0.480	4.9982E-08
0.500	3.9989E-08
0.550	3.0745E-08
0.600	3.3540E-08
0.650	3.6335E-08
0.700	3.3523E-08
0.800	3.1911E-08
0.850	2.7111E-08
0.900	2.1518E-08
0.950	1.5135E-08
1.000	1.5931E-08
1.060	1.6887E-08
1.200	2.8691E-08
1.400	4.4653E-08
1.600	1.0227E-07
1.800	3.0401E-07
2.000	7.8289E-07
2.200	2.2181E-06
2.400	8.5235E-06
