Material: glass / cdgm / H-LAF2
Optical constants. CDGM Zemax catalog 2017-09 (obtained from http://www.cdgmgd.com)
Specs: {"n_absolute": false, "wavelength_vacuum": false, "temperature": "20.0 °C", "thermal_dispersion": [{"type": "Schott formula", "coefficients": "-4.12e-06 2.75e-08 -1.05e-10 8.05e-07 -8.24e-10 0.107"}], "nd": 1.716996, "Vd": 47.920216, "glass_code": 717479, "density": "4.25 g/cm3", "thermal_expansion": [{"temperature_range": "-30 70 °C", "coefficient": "7.4e-06 K-1"}, {"temperature_range": "20 300 °C", "coefficient": "9.1e-06 K-1"}], "dPgF": -0.0038, "climatic_resistance": 1.0}
Dispersion formula 3, range 0.365 1.014 um, coefficients 2.87222927 -0.00570883559 2 0.0292421752 -2 -0.00146115324 -4 0.000252525251 -6 -1.08672409e-05 -8
wavelength (um)	k
0.340	5.1876E-06
0.350	2.0793E-06
0.360	9.2127E-07
0.370	4.3724E-07
0.380	2.2596E-07
0.390	1.3316E-07
0.400	7.7326E-08
0.420	4.7122E-08
0.440	3.1655E-08
0.460	2.2030E-08
0.480	1.9146E-08
0.500	1.1955E-08
0.550	8.7623E-09
0.600	9.5589E-09
0.650	1.0355E-08
0.700	1.1152E-08
0.800	1.2745E-08
0.850	1.3542E-08
0.900	1.4338E-08
0.950	1.5135E-08
1.000	1.5931E-08
1.060	1.6887E-08
1.200	1.9118E-08
1.400	5.5844E-08
1.600	8.9440E-08
1.800	2.7477E-07
2.000	6.1658E-07
2.200	1.6704E-06
2.400	4.3815E-06
