Material: glass / cdgm / H-LAK8A
Optical constants. CDGM Zemax catalog 2017-09 (obtained from http://www.cdgmgd.com)
Specs: {"n_absolute": false, "wavelength_vacuum": false, "temperature": "20.0 °C", "thermal_dispersion": [{"type": "Schott formula", "coefficients": "4.02e-06 1.82e-08 -1.04e-10 4.87e-07 9.07e-10 0.216"}], "nd": 1.72, "Vd": 50.351963, "glass_code": 720503, "glass_status": "preferred", "density": "3.77 g/cm3", "thermal_expansion": [{"temperature_range": "-30 70 °C", "coefficient": "5.3e-06 K-1"}, {"temperature_range": "20 300 °C", "coefficient": "7.2e-06 K-1"}], "dPgF": -0.0071, "climatic_resistance": 1.0}
Dispersion formula 3, range 0.365 1.014 um, coefficients 2.89697306 -0.0143738053 2 0.0222280432 -2 0.000105067282 -4 5.16989124e-05 -6 -1.90417816e-06 -8
wavelength (um)	k
0.320	6.4317E-06
0.330	3.1617E-06
0.340	1.7693E-06
0.350	1.0335E-06
0.360	6.7529E-07
0.370	4.2021E-07
0.380	2.7855E-07
0.390	1.9864E-07
0.400	1.4990E-07
0.420	1.0870E-07
0.440	8.5059E-08
0.460	7.0220E-08
0.480	5.7730E-08
0.500	4.4010E-08
0.550	3.5155E-08
0.600	3.3540E-08
0.650	3.6335E-08
0.700	3.3523E-08
0.800	3.8312E-08
0.850	1.3542E-08
0.900	1.4338E-08
0.950	1.5135E-08
1.000	1.5931E-08
1.060	1.6887E-08
1.200	1.9118E-08
1.400	2.2304E-08
1.600	2.5490E-08
1.800	1.8743E-07
2.000	6.9952E-07
2.200	2.6405E-06
2.400	9.4404E-06
