Material: glass / cdgm / H-QF8
Optical constants. CDGM Zemax catalog 2017-09 (obtained from http://www.cdgmgd.com)
Specs: {"n_absolute": false, "wavelength_vacuum": false, "temperature": "20.0 °C", "thermal_dispersion": [{"type": "Schott formula", "coefficients": "-2.28e-06 1.48e-08 -8.66e-11 5.08e-07 1.15e-10 0.282"}], "nd": 1.540723, "Vd": 47.229943, "glass_code": 541472, "density": "2.54 g/cm3", "thermal_expansion": [{"temperature_range": "-30 70 °C", "coefficient": "9.6e-06 K-1"}, {"temperature_range": "20 300 °C", "coefficient": "1.13e-05 K-1"}], "dPgF": 0.0025, "climatic_resistance": 2.0}
Dispersion formula 3, range 0.365 1.014 um, coefficients 2.32749417 -0.007674586 2 0.017076264 -2 -0.000306358071 -4 9.60375308e-05 -6 -3.46437878e-06 -8
wavelength (um)	k
0.340	1.0585E-05
0.350	3.5455E-06
0.360	1.3695E-06
0.370	5.7356E-07
0.380	2.8187E-07
0.390	1.4615E-07
0.400	8.3855E-08
0.420	4.3734E-08
0.440	3.5190E-08
0.460	3.3094E-08
0.480	3.0681E-08
0.500	2.3945E-08
0.550	1.7542E-08
0.600	1.9137E-08
0.650	2.0732E-08
0.700	1.6736E-08
0.800	1.2745E-08
0.850	1.3542E-08
0.900	1.4338E-08
0.950	1.5135E-08
1.000	1.5931E-08
1.060	1.6887E-08
1.200	1.9118E-08
1.400	2.2304E-08
1.600	5.1032E-08
1.800	4.8067E-07
2.000	1.3271E-06
2.200	3.0108E-06
2.400	4.7453E-06
