Material: glass / cdgm / H-ZBAF52
Optical constants. CDGM Zemax catalog 2017-09 (obtained from http://www.cdgmgd.com)
Specs: {"n_absolute": false, "wavelength_vacuum": false, "temperature": "20.0 °C", "thermal_dispersion": [{"type": "Schott formula", "coefficients": "3.45e-06 1.34e-08 -4.85e-11 6.62e-07 8.03e-10 0.205"}], "nd": 1.670031, "Vd": 47.197459, "glass_code": 670472, "glass_status": "standard", "density": "3.57 g/cm3", "thermal_expansion": [{"temperature_range": "-30 70 °C", "coefficient": "7e-06 K-1"}, {"temperature_range": "20 300 °C", "coefficient": "8.8e-06 K-1"}], "dPgF": -0.0025, "climatic_resistance": 1.0}
Dispersion formula 3, range 0.365 1.014 um, coefficients 2.72624888 -0.00858990967 2 0.0222509606 -2 -2.894972e-05 -4 6.84239255e-05 -6 -2.15508588e-06 -8
wavelength (um)	k
0.340	7.6121E-06
0.350	3.0047E-06
0.360	1.3236E-06
0.370	6.5702E-07
0.380	3.6601E-07
0.390	2.2522E-07
0.400	1.5324E-07
0.420	9.8359E-08
0.440	8.5059E-08
0.460	7.3953E-08
0.480	6.5494E-08
0.500	6.0135E-08
0.550	4.8411E-08
0.600	5.2812E-08
0.650	5.1986E-08
0.700	5.5985E-08
0.800	5.7555E-08
0.850	2.7111E-08
0.900	2.1518E-08
0.950	1.5135E-08
1.000	1.5931E-08
1.060	1.6887E-08
1.200	1.9118E-08
1.400	2.2304E-08
1.600	5.1032E-08
1.800	2.6018E-07
2.000	4.5199E-07
2.200	1.0460E-06
2.400	2.3117E-06
