Material: glass / cdgm / H-ZF52TT
Optical constants. CDGM Zemax catalog 2017-09 (obtained from http://www.cdgmgd.com)
Specs: {"n_absolute": false, "wavelength_vacuum": false, "temperature": "20.0 °C", "thermal_dispersion": [{"type": "Schott formula", "coefficients": "-6.22e-06 1.92e-08 -2.63e-11 1.13e-06 6.65e-10 0.291"}], "nd": 1.846666, "Vd": 23.787324, "glass_code": 847238, "glass_status": "standard", "density": "3.51 g/cm3", "thermal_expansion": [{"temperature_range": "-30 70 °C", "coefficient": "8.8e-06 K-1"}, {"temperature_range": "20 300 °C", "coefficient": "1.08e-05 K-1"}], "dPgF": 0.0128, "climatic_resistance": 1.0}
Dispersion formula 3, range 0.4047 1.014 um, coefficients 3.26760058 -0.0205384566 2 0.0351507672 -2 0.00770151348 -4 -0.000908139817 -6 7.52649555e-05 -8
wavelength (um)	k
0.370	7.4367E-06
0.380	2.4416E-06
0.390	1.0109E-06
0.400	5.1731E-07
0.420	2.4615E-07
0.440	1.6489E-07
0.460	1.2284E-07
0.480	1.0063E-07
0.500	8.4446E-08
0.550	5.2839E-08
0.600	4.7987E-08
0.650	5.1986E-08
0.700	3.9130E-08
0.800	3.8312E-08
0.850	2.0323E-08
0.900	2.1518E-08
0.950	2.2714E-08
1.000	2.3909E-08
1.060	2.5344E-08
1.200	1.9118E-08
1.400	5.5844E-08
1.600	1.0227E-07
1.800	3.0401E-07
2.000	5.5054E-07
2.200	1.1019E-06
2.400	2.2256E-06
