Material: glass / cdgm / H-ZF7LA
Optical constants. CDGM Zemax catalog 2017-09 (obtained from http://www.cdgmgd.com)
Specs: {"n_absolute": false, "wavelength_vacuum": false, "temperature": "20.0 °C", "thermal_dispersion": [{"type": "Schott formula", "coefficients": "-7.02e-06 1.12e-08 -1.8e-11 8.78e-07 1.42e-09 0.31"}], "nd": 1.805189, "Vd": 25.47729, "glass_code": 805255, "glass_status": "standard", "density": "3.35 g/cm3", "thermal_expansion": [{"temperature_range": "-30 70 °C", "coefficient": "9e-06 K-1"}, {"temperature_range": "20 300 °C", "coefficient": "1.13e-05 K-1"}], "dPgF": 0.0098, "climatic_resistance": 1.0}
Dispersion formula 3, range 0.4047 1.711 um, coefficients 3.11930169 -0.0120954989 2 0.0427579381 -2 0.00249825483 -4 -0.000116785147 -6 2.28047853e-05 -8
wavelength (um)	k
0.360	1.1067E-05
0.370	3.4579E-06
0.380	1.3167E-06
0.390	6.5398E-07
0.400	4.1778E-07
0.420	2.0680E-07
0.440	1.2475E-07
0.460	8.8925E-08
0.480	6.9381E-08
0.500	6.0135E-08
0.550	3.0745E-08
0.600	2.3933E-08
0.650	2.5928E-08
0.700	2.2326E-08
0.800	2.5516E-08
0.850	1.3542E-08
0.900	1.4338E-08
0.950	1.5135E-08
1.000	1.5931E-08
1.060	1.6887E-08
1.200	1.9118E-08
1.400	4.4653E-08
1.600	1.0227E-07
1.800	3.9206E-07
2.000	7.6618E-07
2.200	1.5169E-06
2.400	3.0142E-06
