Material: glass / cdgm / H-ZF11
Optical constants. CDGM Zemax catalog 2017-09 (obtained from http://www.cdgmgd.com)
Specs: {"n_absolute": false, "wavelength_vacuum": false, "temperature": "20.0 °C", "thermal_dispersion": [{"type": "Schott formula", "coefficients": "-5.44e-06 1.26e-08 -4.98e-11 9.34e-07 1.1e-09 0.276"}], "nd": 1.698948, "Vd": 30.053069, "glass_code": 699301, "density": "2.95 g/cm3", "thermal_expansion": [{"temperature_range": "-30 70 °C", "coefficient": "9e-06 K-1"}, {"temperature_range": "20 300 °C", "coefficient": "1.13e-05 K-1"}], "dPgF": 0.0074, "climatic_resistance": 1.0}
Dispersion formula 3, range 0.365 1.014 um, coefficients 2.79257889 -0.0123189318 2 0.0282213886 -2 0.00233803553 -4 -0.000193264698 -6 2.03435598e-05 -8
wavelength (um)	k
0.360	9.6870E-06
0.370	2.8645E-06
0.380	9.7245E-07
0.390	4.1442E-07
0.400	2.2416E-07
0.420	1.0525E-07
0.440	7.7891E-08
0.460	5.9043E-08
0.480	4.6114E-08
0.500	3.9989E-08
0.550	2.6340E-08
0.600	1.9137E-08
0.650	2.0732E-08
0.700	2.2326E-08
0.800	1.2745E-08
0.850	1.3542E-08
0.900	1.4338E-08
0.950	1.5135E-08
1.000	1.5931E-08
1.060	1.6887E-08
1.200	1.9118E-08
1.400	7.8260E-08
1.600	1.2796E-07
1.800	4.6586E-07
2.000	9.0035E-07
2.200	2.0598E-06
2.400	3.3754E-06
