Material: glass / cdgm / H-ZK14
Optical constants. CDGM Zemax catalog 2017-09 (obtained from http://www.cdgmgd.com)
Specs: {"n_absolute": false, "wavelength_vacuum": false, "temperature": "20.0 °C", "thermal_dispersion": [{"type": "Schott formula", "coefficients": "6.84e-07 1.97e-08 -6.82e-11 3.07e-07 -3.2e-10 0.249"}], "nd": 1.603112, "Vd": 60.633158, "glass_code": 603606, "glass_status": "standard", "density": "3.44 g/cm3", "thermal_expansion": [{"temperature_range": "-30 70 °C", "coefficient": "6.1e-06 K-1"}, {"temperature_range": "20 300 °C", "coefficient": "7.5e-06 K-1"}], "dPgF": -0.0059}
Dispersion formula 3, range 0.365 1.014 um, coefficients 2.53022442 -0.0101985443 2 0.0142843974 -2 0.000253350969 -4 -1.29976369e-05 -6 1.10420609e-06 -8
wavelength (um)	k
0.290	9.0280E-06
0.300	5.7485E-06
0.310	3.4199E-06
0.320	2.0334E-06
0.330	1.1720E-06
0.340	6.7225E-07
0.350	3.8787E-07
0.360	2.0482E-07
0.370	1.1713E-07
0.380	7.3460E-08
0.390	4.6905E-08
0.400	2.8778E-08
0.420	2.0114E-08
0.440	2.1072E-08
0.460	1.8349E-08
0.480	1.5310E-08
0.500	1.1955E-08
0.550	8.7623E-09
0.600	1.4345E-08
0.650	1.5541E-08
0.700	1.6736E-08
0.800	1.9127E-08
0.850	2.0323E-08
0.900	2.8705E-08
0.950	3.0300E-08
1.000	3.1895E-08
1.060	3.3809E-08
1.200	4.7866E-08
1.400	1.1197E-07
1.600	2.5723E-07
1.800	6.1460E-07
2.000	1.0357E-06
2.200	4.5757E-06
2.400	8.5235E-06
