Material: glass / cdgm / H-ZLAF69
Optical constants. CDGM Zemax catalog 2017-09 (obtained from http://www.cdgmgd.com)
Specs: {"n_absolute": false, "wavelength_vacuum": false, "temperature": "20.0 °C", "thermal_dispersion": [{"type": "Schott formula", "coefficients": "1.51e-06 1.83e-08 -1.08e-10 5.27e-07 6.39e-10 0.24"}], "nd": 1.816001, "Vd": 46.56921, "glass_code": 816465, "density": "5.01 g/cm3", "thermal_expansion": [{"temperature_range": "-30 70 °C", "coefficient": "6.4e-06 K-1"}, {"temperature_range": "20 300 °C", "coefficient": "7.8e-06 K-1"}], "dPgF": -0.0108, "climatic_resistance": 1.0}
Dispersion formula 3, range 0.365 1.014 um, coefficients 3.2148109 -0.012992517 2 0.029243707 -2 0.00018800218 -4 5.7106547e-05 -6 -1.9571482e-06 -8
wavelength (um)	k
0.290	8.0922E-06
0.300	5.4970E-06
0.310	4.5208E-06
0.320	2.4639E-06
0.330	1.7172E-06
0.340	1.1242E-06
0.350	7.6436E-07
0.360	4.8248E-07
0.370	3.1677E-07
0.380	2.1620E-07
0.390	1.5592E-07
0.400	1.2332E-07
0.420	8.8048E-08
0.440	7.4313E-08
0.460	5.5324E-08
0.480	4.2250E-08
0.500	3.5972E-08
0.550	3.0745E-08
0.600	3.3540E-08
0.650	4.1547E-08
0.700	4.4743E-08
0.800	5.1134E-08
0.850	1.3542E-08
0.900	1.4338E-08
0.950	1.5135E-08
1.000	1.5931E-08
1.060	1.6887E-08
1.200	1.9118E-08
1.400	2.2304E-08
1.600	3.8255E-08
1.800	1.1505E-07
2.000	3.8663E-07
2.200	1.1579E-06
2.400	4.9917E-06
