Material: glass / cdgm / H-ZLAF78B
Optical constants. CDGM Zemax catalog 2017-09 (obtained from http://www.cdgmgd.com)
Specs: {"n_absolute": false, "wavelength_vacuum": false, "temperature": "20.0 °C", "thermal_dispersion": [{"type": "Schott formula", "coefficients": "-1.22e-06 1.45e-08 -2.51e-11 1.18e-06 6.04e-10 0.13"}], "nd": 1.900696, "Vd": 37.053564, "glass_code": 901371, "density": "4.95 g/cm3", "thermal_expansion": [{"temperature_range": "-30 70 °C", "coefficient": "6.8e-06 K-1"}, {"temperature_range": "20 300 °C", "coefficient": "8.6e-06 K-1"}], "dPgF": -0.0043, "climatic_resistance": 1.0}
Dispersion formula 3, range 0.365 1.014 um, coefficients 3.49322693 -0.0132987683 2 0.0400277433 -2 0.000823139853 -4 3.93075178e-05 -6 2.86901814e-06 -8
wavelength (um)	k
0.350	6.2247E-06
0.360	2.8795E-06
0.370	1.5887E-06
0.380	9.8918E-07
0.390	6.6934E-07
0.400	4.7269E-07
0.420	2.8596E-07
0.440	1.9808E-07
0.460	1.4181E-07
0.480	9.6707E-08
0.500	6.4177E-08
0.550	2.6340E-08
0.600	2.8734E-08
0.650	2.0732E-08
0.700	2.2326E-08
0.800	1.2745E-08
0.850	1.3542E-08
0.900	1.4338E-08
0.950	1.5135E-08
1.000	1.5931E-08
1.060	1.6887E-08
1.200	1.9118E-08
1.400	2.2304E-08
1.600	2.5490E-08
1.800	8.6203E-08
2.000	3.2154E-07
2.200	8.7958E-07
2.400	3.3982E-06
