Material: glass / cdgm / H-ZLAF75B
Optical constants. CDGM Zemax catalog 2017-09 (obtained from http://www.cdgmgd.com)
Specs: {"n_absolute": false, "wavelength_vacuum": false, "temperature": "20.0 °C", "thermal_dispersion": [{"type": "Schott formula", "coefficients": "-1.9e-06 1.14e-08 -2.95e-11 7.58e-07 9.54e-10 0.287"}], "nd": 1.903663, "Vd": 31.419748, "glass_code": 904314, "density": "4.56 g/cm3", "thermal_expansion": [{"temperature_range": "-30 70 °C", "coefficient": "7e-06 K-1"}, {"temperature_range": "20 300 °C", "coefficient": "8.8e-06 K-1"}], "dPgF": 0.0023}
Dispersion formula 3, range 0.365 1.014 um, coefficients 3.48346668 -0.0133305235 2 0.046504237 -2 0.00100655469 -4 5.58112511e-05 -6 7.97155171e-06 -8
wavelength (um)	k
0.360	6.5117E-06
0.370	2.5683E-06
0.380	1.2428E-06
0.390	7.1981E-07
0.400	4.6531E-07
0.420	2.5696E-07
0.440	1.7224E-07
0.460	1.2284E-07
0.480	8.8880E-08
0.500	6.8222E-08
0.550	3.0745E-08
0.600	3.3540E-08
0.650	3.1129E-08
0.700	3.3523E-08
0.800	2.5516E-08
0.850	2.0323E-08
0.900	1.4338E-08
0.950	1.5135E-08
1.000	1.5931E-08
1.060	1.6887E-08
1.200	1.9118E-08
1.400	3.3473E-08
1.600	5.1032E-08
1.800	1.4396E-07
2.000	4.3563E-07
2.200	1.2705E-06
2.400	4.5020E-06
