Material: glass / cdgm / H-ZLAF53BGT
Optical constants. CDGM Zemax catalog 2017-09 (obtained from http://www.cdgmgd.com)
Specs: {"n_absolute": false, "wavelength_vacuum": false, "temperature": "20.0 °C", "thermal_dispersion": [{"type": "Schott formula", "coefficients": "9.9e-06 2.08e-08 -8.84e-11 8.92e-07 6.66e-10 0.24"}], "nd": 1.833996, "Vd": 37.229136, "glass_code": 834372, "glass_status": "standard", "density": "4.54 g/cm3", "thermal_expansion": [{"temperature_range": "-30 70 °C", "coefficient": "5.9e-06 K-1"}, {"temperature_range": "20 300 °C", "coefficient": "7.2e-06 K-1"}], "dPgF": -0.0041, "climatic_resistance": 1.0}
Dispersion formula 3, range 0.365 1.014 um, coefficients 3.25780649 -0.0123377843 2 0.0355171622 -2 0.000705690228 -4 4.3498733e-05 -6 1.95613611e-06 -8
wavelength (um)	k
0.340	4.3545E-06
0.350	4.4003E-06
0.360	1.7652E-06
0.370	8.5490E-07
0.380	4.6665E-07
0.390	2.8929E-07
0.400	1.9696E-07
0.420	1.0525E-07
0.440	8.1473E-08
0.460	5.5324E-08
0.480	4.2250E-08
0.500	3.1959E-08
0.550	2.6340E-08
0.600	2.8734E-08
0.650	3.6335E-08
0.700	3.9130E-08
0.800	3.1911E-08
0.850	1.3542E-08
0.900	1.4338E-08
0.950	1.5135E-08
1.000	1.5931E-08
1.060	1.6887E-08
1.200	1.9118E-08
1.400	2.2304E-08
1.600	2.5490E-08
1.800	1.0062E-07
2.000	3.7033E-07
2.200	9.9038E-07
2.400	4.0717E-06
