Material: inorganic / As2Se3 / Joseph-400nm
Optical constants. S. Joseph, S. Sarkar, S. Khan, J. Joseph, Exploring the optical bound state in the continuum in a dielectric grating coupled plasmonic hybrid system, Adv. Opt. Mater., 3, 2001895 (2021)(Numerical data kindly provided by Prof. Joby Joseph)
Comments: 400 nm film on glass substrate.
Specs: {"n_absolute": true, "wavelength_vacuum": true, "film_thickness": "400 nm", "substrate": "glass"}
wavelength (um)	n	k
0.2458	1.28861	1.03512
0.2490	1.29292	1.07090
0.2522	1.29859	1.10630
0.2554	1.30640	1.14212
0.2586	1.31698	1.17898
0.2617	1.33085	1.21729
0.2649	1.34822	1.25711
0.2681	1.36862	1.29740
0.2713	1.39146	1.33712
0.2744	1.41622	1.37543
0.2776	1.44242	1.41171
0.2808	1.46966	1.44549
0.2840	1.49781	1.47677
0.2871	1.52710	1.50622
0.2903	1.55775	1.53450
0.2935	1.58993	1.56213
0.2967	1.62375	1.58955
0.2999	1.65928	1.61712
0.3030	1.69651	1.64508
0.3062	1.73528	1.67303
0.3094	1.77530	1.70024
0.3126	1.81634	1.72615
0.3157	1.85820	1.75029
0.3189	1.90073	1.77229
0.3221	1.94379	1.79186
0.3253	1.98729	1.80879
0.3285	2.03117	1.82296
0.3316	2.07550	1.83446
0.3348	2.12033	1.84344
0.3380	2.16572	1.85001
0.3412	2.21172	1.85432
0.3443	2.25838	1.85650
0.3475	2.30572	1.85668
0.3507	2.35377	1.85499
0.3539	2.40256	1.85156
0.3571	2.45196	1.84652
0.3602	2.50135	1.84001
0.3634	2.55007	1.83213
0.3666	2.59759	1.82295
0.3698	2.64343	1.81252
0.3729	2.68718	1.80086
0.3761	2.72852	1.78797
0.3793	2.76716	1.77384
0.3825	2.80284	1.75846
0.3857	2.83538	1.74178
0.3888	2.86460	1.72377
0.3920	2.89068	1.70446
0.3952	2.91433	1.68401
0.3984	2.93622	1.66261
0.4015	2.95695	1.64042
0.4047	2.97706	1.61762
0.4079	2.99705	1.59439
0.4111	3.01733	1.57091
0.4143	3.03830	1.54735
0.4174	3.06031	1.52389
0.4206	3.08363	1.50070
0.4238	3.10854	1.47794
0.4270	3.13526	1.45577
0.4301	3.16395	1.43436
0.4333	3.19446	1.41374
0.4365	3.22614	1.39378
0.4397	3.25837	1.37433
0.4428	3.29057	1.35522
0.4460	3.32226	1.33630
0.4492	3.35300	1.31742
0.4524	3.38240	1.29840
0.4555	3.41011	1.27911
0.4587	3.43585	1.25940
0.4619	3.45935	1.23911
0.4651	3.48039	1.21812
0.4682	3.49875	1.19630
0.4714	3.51427	1.17350
0.4746	3.52678	1.14961
0.4778	3.53614	1.12448
0.4809	3.54224	1.09800
0.4841	3.54509	1.07013
0.4873	3.54501	1.04101
0.4905	3.54234	1.01081
0.4936	3.53740	0.97969
0.4968	3.53046	0.94780
0.5000	3.52180	0.91530
0.5032	3.51165	0.88232
0.5063	3.50024	0.84901
0.5095	3.48778	0.81550
0.5127	3.47447	0.78193
0.5159	3.46048	0.74842
0.5190	3.44598	0.71511
0.5222	3.43112	0.68211
0.5254	3.41604	0.64956
0.5286	3.40088	0.61758
0.5317	3.38576	0.58629
0.5349	3.37078	0.55580
0.5381	3.35605	0.52622
0.5412	3.34166	0.49769
0.5444	3.32768	0.47029
0.5476	3.31420	0.44413
0.5508	3.30121	0.41922
0.5539	3.28868	0.39552
0.5571	3.27656	0.37298
0.5603	3.26483	0.35155
0.5634	3.25346	0.33120
0.5666	3.24241	0.31189
0.5698	3.23167	0.29357
0.5730	3.22120	0.27620
0.5761	3.21098	0.25975
0.5793	3.20100	0.24417
0.5825	3.19123	0.22944
0.5856	3.18166	0.21550
0.5888	3.17226	0.20233
0.5920	3.16303	0.18989
0.5951	3.15394	0.17815
0.5983	3.14499	0.16708
0.6015	3.13617	0.15665
0.6046	3.12746	0.14682
0.6078	3.11885	0.13757
0.6110	3.11033	0.12886
0.6141	3.10190	0.12068
0.6173	3.09354	0.11300
0.6205	3.08525	0.10578
0.6236	3.07702	0.09901
0.6268	3.06886	0.09267
0.6300	3.06074	0.08672
0.6331	3.05266	0.08116
0.6363	3.04464	0.07595
0.6395	3.03666	0.07108
0.6426	3.02875	0.06654
0.6458	3.02090	0.06231
0.6490	3.01312	0.05837
0.6521	3.00541	0.05470
0.6553	2.99778	0.05129
0.6585	2.99024	0.04812
0.6616	2.98278	0.04519
0.6648	2.97541	0.04248
0.6679	2.96814	0.03997
0.6711	2.96097	0.03766
0.6743	2.95390	0.03553
0.6774	2.94694	0.03357
0.6806	2.94008	0.03177
0.6837	2.93335	0.03012
0.6869	2.92672	0.02861
0.6901	2.92022	0.02723
0.6932	2.91384	0.02597
0.6964	2.90758	0.02482
0.6995	2.90145	0.02378
0.7027	2.89544	0.02283
0.7059	2.88957	0.02196
0.7090	2.88383	0.02118
0.7122	2.87823	0.02047
0.7153	2.87276	0.01982
0.7185	2.86742	0.01923
0.7217	2.86223	0.01870
0.7248	2.85718	0.01820
0.7280	2.85227	0.01775
0.7311	2.84750	0.01733
0.7343	2.84287	0.01695
0.7374	2.83839	0.01658
0.7406	2.83405	0.01623
0.7437	2.82985	0.01589
0.7469	2.82580	0.01557
0.7500	2.82190	0.01525
0.7532	2.81814	0.01493
0.7564	2.81452	0.01461
0.7595	2.81102	0.01430
0.7627	2.80765	0.01399
0.7658	2.80441	0.01368
0.7690	2.80127	0.01338
0.7721	2.79825	0.01308
0.7753	2.79534	0.01279
0.7784	2.79253	0.01250
0.7816	2.78981	0.01221
0.7847	2.78719	0.01193
0.7879	2.78466	0.01165
0.7910	2.78222	0.01138
0.7942	2.77985	0.01111
0.7973	2.77757	0.01085
0.8005	2.77536	0.01059
0.8036	2.77322	0.01033
0.8068	2.77115	0.01008
0.8099	2.76914	0.00983
0.8130	2.76720	0.00959
0.8162	2.76531	0.00935
0.8193	2.76348	0.00912
0.8225	2.76171	0.00889
0.8256	2.75998	0.00866
0.8288	2.75831	0.00844
0.8319	2.75668	0.00823
0.8351	2.75509	0.00802
0.8382	2.75354	0.00782
0.8413	2.75203	0.00762
0.8445	2.75056	0.00742
0.8476	2.74912	0.00723
0.8508	2.74771	0.00704
0.8539	2.74634	0.00686
0.8570	2.74499	0.00668
0.8602	2.74367	0.00651
0.8633	2.74238	0.00634
0.8665	2.74110	0.00618
0.8696	2.73985	0.00602
0.8727	2.73862	0.00587
0.8759	2.73741	0.00572
0.8790	2.73622	0.00557
0.8822	2.73504	0.00543
0.8853	2.73387	0.00530
0.8884	2.73272	0.00516
0.8916	2.73158	0.00504
0.8947	2.73046	0.00491
0.8978	2.72934	0.00480
0.9010	2.72823	0.00468
0.9041	2.72712	0.00457
0.9072	2.72602	0.00447
0.9104	2.72493	0.00437
0.9135	2.72385	0.00427
0.9166	2.72276	0.00418
0.9197	2.72168	0.00409
0.9229	2.72060	0.00400
0.9260	2.71953	0.00392
0.9291	2.71846	0.00385
0.9323	2.71739	0.00378
0.9354	2.71632	0.00371
0.9385	2.71526	0.00364
0.9416	2.71420	0.00358
0.9448	2.71315	0.00352
0.9479	2.71211	0.00347
0.9510	2.71106	0.00342
0.9542	2.71003	0.00337
0.9573	2.70900	0.00332
0.9604	2.70797	0.00328
0.9635	2.70696	0.00324
0.9666	2.70595	0.00321
0.9698	2.70494	0.00317
0.9729	2.70395	0.00314
0.9760	2.70296	0.00312
0.9791	2.70198	0.00309
0.9822	2.70100	0.00307
0.9854	2.70004	0.00305
0.9885	2.69908	0.00303
0.9916	2.69813	0.00302
0.9947	2.69719	0.00301
0.9978	2.69625	0.00300
1.0104	2.69258	0.00298
1.0171	2.69067	0.00299
1.0239	2.68880	0.00301
1.0306	2.68697	0.00303
1.0373	2.68519	0.00306
1.0441	2.68345	0.00311
1.0508	2.68176	0.00315
1.0576	2.68011	0.00321
1.0643	2.67850	0.00327
1.0711	2.67695	0.00334
1.0778	2.67544	0.00342
1.0846	2.67397	0.00350
1.0914	2.67256	0.00359
1.0981	2.67119	0.00368
1.1049	2.66987	0.00378
1.1117	2.66859	0.00388
1.1184	2.66736	0.00399
1.1252	2.66618	0.00410
1.1320	2.66504	0.00422
1.1387	2.66396	0.00434
1.1455	2.66291	0.00446
1.1523	2.66192	0.00459
1.1591	2.66097	0.00472
1.1659	2.66006	0.00485
1.1727	2.65920	0.00499
1.1794	2.65838	0.00513
1.1862	2.65761	0.00527
1.1930	2.65688	0.00541
1.1998	2.65620	0.00556
1.2066	2.65556	0.00571
1.2134	2.65495	0.00586
1.2202	2.65438	0.00601
1.2270	2.65385	0.00617
1.2338	2.65335	0.00632
1.2407	2.65288	0.00648
1.2475	2.65245	0.00664
1.2543	2.65204	0.00679
1.2611	2.65166	0.00696
1.2679	2.65131	0.00712
1.2747	2.65098	0.00728
1.2816	2.65068	0.00744
1.2884	2.65041	0.00760
1.2952	2.65015	0.00777
1.3020	2.64992	0.00793
1.3089	2.64970	0.00809
1.3157	2.64950	0.00826
1.3225	2.64933	0.00842
1.3294	2.64917	0.00858
1.3362	2.64902	0.00875
1.3431	2.64890	0.00891
1.3499	2.64878	0.00908
1.3568	2.64868	0.00924
1.3636	2.64860	0.00940
1.3705	2.64853	0.00957
1.3773	2.64847	0.00973
1.3842	2.64842	0.00989
1.3910	2.64838	0.01005
1.3979	2.64835	0.01021
1.4047	2.64833	0.01038
1.4116	2.64832	0.01053
1.4185	2.64832	0.01070
1.4253	2.64833	0.01085
1.4322	2.64835	0.01101
1.4391	2.64837	0.01117
1.4460	2.64840	0.01133
1.4528	2.64843	0.01148
1.4597	2.64848	0.01164
1.4666	2.64852	0.01179
1.4735	2.64858	0.01195
1.4804	2.64863	0.01210
1.4873	2.64870	0.01225
1.4942	2.64876	0.01240
1.5011	2.64883	0.01255
1.5079	2.64891	0.01270
1.5148	2.64899	0.01285
1.5217	2.64907	0.01300
1.5286	2.64915	0.01315
1.5356	2.64924	0.01329
1.5425	2.64933	0.01344
1.5494	2.64942	0.01358
1.5563	2.64951	0.01372
1.5632	2.64960	0.01386
1.5701	2.64970	0.01400
1.5770	2.64980	0.01414
1.5839	2.64990	0.01428
1.5909	2.65000	0.01442
1.5978	2.65010	0.01456
1.6047	2.65020	0.01469
1.6116	2.65030	0.01483
1.6186	2.65040	0.01496
1.6255	2.65050	0.01510
1.6324	2.65061	0.01523
1.6394	2.65071	0.01536
1.6463	2.65081	0.01549
1.6533	2.65091	0.01562
1.6602	2.65102	0.01574
1.6672	2.65112	0.01587
1.6741	2.65122	0.01599
1.6811	2.65132	0.01612
1.6880	2.65142	0.01624
