Material: inorganic / As2Se3 / Joseph-700nm
Optical constants. S. Joseph, S. Sarkar, J. Joseph, Grating-coupled surface plasmon-polariton sensing at a flat metalâ€“analyte interface in a hybrid-configuration, ACS Appl. Mater. Interfaces, 12, 46519-46529 (2020)(Numerical data kindly provided by Prof. Joby Joseph)
Comments: 700 nm film on glass substrate.
Specs: {"n_absolute": true, "wavelength_vacuum": true, "film_thickness": "700 nm", "substrate": "glass"}
wavelength (um)	n	k
0.2458	0.62512	7.61828
0.2490	0.71841	7.86253
0.2522	0.80293	8.09920
0.2554	0.88415	8.32649
0.2586	0.96523	8.54288
0.2617	1.04797	8.74713
0.2649	1.13303	8.93853
0.2681	1.21920	9.11789
0.2713	1.30529	9.28635
0.2744	1.39048	9.44491
0.2776	1.47423	9.59450
0.2808	1.55617	9.73596
0.2840	1.63596	9.86918
0.2871	1.71311	9.99250
0.2903	1.78730	10.10429
0.2935	1.85831	10.20319
0.2967	1.92602	10.28803
0.2999	1.99034	10.35787
0.3030	2.05128	10.41210
0.3062	2.10933	10.45255
0.3094	2.16516	10.48231
0.3126	2.21932	10.50418
0.3157	2.27227	10.52066
0.3189	2.32436	10.53398
0.3221	2.37592	10.54612
0.3253	2.42717	10.55886
0.3285	2.47825	10.57279
0.3316	2.52901	10.58478
0.3348	2.57928	10.59122
0.3380	2.62890	10.58889
0.3412	2.67776	10.57495
0.3443	2.72577	10.54691
0.3475	2.77283	10.50258
0.3507	2.81890	10.44003
0.3539	2.86392	10.35761
0.3571	2.90782	10.25477
0.3602	2.95037	10.13430
0.3634	2.99137	9.99948
0.3666	3.03063	9.85329
0.3698	3.06802	9.69846
0.3729	3.10342	9.53746
0.3761	3.13673	9.37254
0.3793	3.16788	9.20576
0.3825	3.19682	9.03897
0.3857	3.22349	8.87384
0.3888	3.24786	8.71188
0.3920	3.27000	8.55352
0.3952	3.29009	8.39767
0.3984	3.30834	8.24315
0.4015	3.32491	8.08894
0.4047	3.33996	7.93408
0.4079	3.35363	7.77771
0.4111	3.36605	7.61905
0.4143	3.37733	7.45741
0.4174	3.38760	7.29215
0.4206	3.39694	7.12270
0.4238	3.40546	6.94856
0.4270	3.41322	6.76929
0.4301	3.42032	6.58447
0.4333	3.42679	6.39452
0.4365	3.43265	6.20108
0.4397	3.43788	6.00574
0.4428	3.44249	5.80999
0.4460	3.44648	5.61520
0.4492	3.44985	5.42261
0.4524	3.45260	5.23337
0.4555	3.45475	5.04853
0.4587	3.45628	4.86904
0.4619	3.45721	4.69579
0.4651	3.45754	4.52955
0.4682	3.45728	4.37105
0.4714	3.45642	4.22094
0.4746	3.45498	4.07981
0.4778	3.45297	3.94819
0.4809	3.45038	3.82656
0.4841	3.44724	3.71490
0.4873	3.44357	3.61226
0.4905	3.43942	3.51758
0.4936	3.43481	3.42989
0.4968	3.42978	3.34827
0.5000	3.42436	3.27186
0.5032	3.41858	3.19988
0.5063	3.41246	3.13157
0.5095	3.40602	3.06624
0.5127	3.39930	3.00324
0.5159	3.39231	2.94197
0.5190	3.38508	2.88186
0.5222	3.37762	2.82239
0.5254	3.36995	2.76307
0.5286	3.36210	2.70346
0.5317	3.35407	2.64312
0.5349	3.34588	2.58167
0.5381	3.33756	2.51876
0.5412	3.32910	2.45403
0.5444	3.32054	2.38720
0.5476	3.31187	2.31800
0.5508	3.30311	2.24662
0.5539	3.29428	2.17343
0.5571	3.28539	2.09882
0.5603	3.27646	2.02313
0.5634	3.26748	1.94669
0.5666	3.25848	1.86981
0.5698	3.24947	1.79278
0.5730	3.24045	1.71586
0.5761	3.23143	1.63932
0.5793	3.22243	1.56337
0.5825	3.21345	1.48825
0.5856	3.20450	1.41416
0.5888	3.19558	1.34129
0.5920	3.18671	1.26982
0.5951	3.17790	1.19992
0.5983	3.16913	1.13174
0.6015	3.16044	1.06543
0.6046	3.15180	1.00111
0.6078	3.14325	0.93891
0.6110	3.13477	0.87895
0.6141	3.12638	0.82133
0.6173	3.11808	0.76615
0.6205	3.10986	0.71348
0.6236	3.10175	0.66343
0.6268	3.09374	0.61605
0.6300	3.08583	0.57142
0.6331	3.07802	0.52958
0.6363	3.07033	0.49046
0.6395	3.06274	0.45390
0.6426	3.05526	0.41979
0.6458	3.04790	0.38798
0.6490	3.04064	0.35836
0.6521	3.03350	0.33080
0.6553	3.02647	0.30520
0.6585	3.01955	0.28144
0.6616	3.01274	0.25942
0.6648	3.00605	0.23904
0.6679	2.99946	0.22021
0.6711	2.99299	0.20284
0.6743	2.98664	0.18683
0.6774	2.98039	0.17212
0.6806	2.97425	0.15861
0.6837	2.96823	0.14623
0.6869	2.96232	0.13490
0.6901	2.95652	0.12457
0.6932	2.95083	0.11516
0.6964	2.94526	0.10661
0.6995	2.93979	0.09885
0.7027	2.93443	0.09184
0.7059	2.92918	0.08551
0.7090	2.92404	0.07982
0.7122	2.91901	0.07470
0.7153	2.91408	0.07012
0.7185	2.90927	0.06602
0.7217	2.90456	0.06236
0.7248	2.89995	0.05911
0.7280	2.89545	0.05621
0.7311	2.89106	0.05364
0.7343	2.88676	0.05135
0.7374	2.88258	0.04931
0.7406	2.87849	0.04749
0.7437	2.87450	0.04585
0.7469	2.87061	0.04437
0.7500	2.86683	0.04301
0.7532	2.86314	0.04177
0.7564	2.85955	0.04063
0.7595	2.85604	0.03960
0.7627	2.85263	0.03866
0.7658	2.84930	0.03781
0.7690	2.84606	0.03704
0.7721	2.84289	0.03636
0.7753	2.83980	0.03575
0.7784	2.83679	0.03521
0.7816	2.83385	0.03474
0.7847	2.83098	0.03433
0.7879	2.82818	0.03398
0.7910	2.82545	0.03368
0.7942	2.82278	0.03343
0.7973	2.82017	0.03324
0.8005	2.81762	0.03308
0.8036	2.81513	0.03297
0.8068	2.81270	0.03290
0.8099	2.81032	0.03286
0.8130	2.80799	0.03285
0.8162	2.80572	0.03287
0.8193	2.80349	0.03292
0.8225	2.80131	0.03299
0.8256	2.79918	0.03308
0.8288	2.79709	0.03319
0.8319	2.79505	0.03332
0.8351	2.79304	0.03346
0.8382	2.79108	0.03362
0.8413	2.78915	0.03379
0.8445	2.78727	0.03396
0.8476	2.78542	0.03414
0.8508	2.78360	0.03433
0.8539	2.78182	0.03452
0.8570	2.78007	0.03471
0.8602	2.77835	0.03491
0.8633	2.77667	0.03510
0.8665	2.77501	0.03529
0.8696	2.77338	0.03547
0.8727	2.77178	0.03566
0.8759	2.77020	0.03583
0.8790	2.76865	0.03600
0.8822	2.76713	0.03615
0.8853	2.76563	0.03630
0.8884	2.76415	0.03644
0.8916	2.76269	0.03657
0.8947	2.76126	0.03668
0.8978	2.75985	0.03678
0.9010	2.75845	0.03687
0.9041	2.75708	0.03694
0.9072	2.75572	0.03700
0.9104	2.75438	0.03704
0.9135	2.75306	0.03706
0.9166	2.75175	0.03706
0.9197	2.75046	0.03705
0.9229	2.74919	0.03702
0.9260	2.74793	0.03697
0.9291	2.74669	0.03690
0.9323	2.74546	0.03682
0.9354	2.74424	0.03672
0.9385	2.74304	0.03661
0.9416	2.74185	0.03649
0.9448	2.74068	0.03636
0.9479	2.73952	0.03621
0.9510	2.73837	0.03605
0.9542	2.73724	0.03589
0.9573	2.73612	0.03571
0.9604	2.73501	0.03553
0.9635	2.73392	0.03534
0.9666	2.73284	0.03514
0.9698	2.73177	0.03493
0.9729	2.73071	0.03472
0.9760	2.72967	0.03450
0.9791	2.72863	0.03428
0.9822	2.72761	0.03405
0.9854	2.72660	0.03382
0.9885	2.72560	0.03359
0.9916	2.72461	0.03335
0.9947	2.72364	0.03311
0.9978	2.72267	0.03287
1.0104	2.71889	0.03188
1.0171	2.71693	0.03134
1.0239	2.71501	0.03081
1.0306	2.71313	0.03029
1.0373	2.71130	0.02977
1.0441	2.70951	0.02926
1.0508	2.70776	0.02877
1.0576	2.70604	0.02830
1.0643	2.70437	0.02784
1.0711	2.70273	0.02740
1.0778	2.70113	0.02698
1.0846	2.69956	0.02659
1.0914	2.69803	0.02622
1.0981	2.69653	0.02588
1.1049	2.69506	0.02557
1.1117	2.69362	0.02529
1.1184	2.69221	0.02503
1.1252	2.69084	0.02481
1.1320	2.68949	0.02462
1.1387	2.68817	0.02446
1.1455	2.68688	0.02433
1.1523	2.68561	0.02424
1.1591	2.68438	0.02418
1.1659	2.68316	0.02415
1.1727	2.68197	0.02416
1.1794	2.68081	0.02421
1.1862	2.67967	0.02429
1.1930	2.67855	0.02440
1.1998	2.67746	0.02455
1.2066	2.67638	0.02473
1.2134	2.67533	0.02495
1.2202	2.67430	0.02519
1.2270	2.67329	0.02546
1.2338	2.67229	0.02575
1.2407	2.67132	0.02607
1.2475	2.67037	0.02641
1.2543	2.66943	0.02678
1.2611	2.66851	0.02717
1.2679	2.66760	0.02757
1.2747	2.66671	0.02799
1.2816	2.66584	0.02843
1.2884	2.66497	0.02889
1.2952	2.66413	0.02936
1.3020	2.66330	0.02985
1.3089	2.66248	0.03035
1.3157	2.66168	0.03086
1.3225	2.66089	0.03138
1.3294	2.66011	0.03191
1.3362	2.65934	0.03246
1.3431	2.65859	0.03301
1.3499	2.65784	0.03357
1.3568	2.65711	0.03414
1.3636	2.65639	0.03471
1.3705	2.65568	0.03530
1.3773	2.65498	0.03589
1.3842	2.65429	0.03648
1.3910	2.65361	0.03708
1.3979	2.65294	0.03768
1.4047	2.65227	0.03829
1.4116	2.65162	0.03890
1.4185	2.65098	0.03951
1.4253	2.65034	0.04013
1.4322	2.64971	0.04074
1.4391	2.64909	0.04136
1.4460	2.64848	0.04198
1.4528	2.64787	0.04261
1.4597	2.64728	0.04323
1.4666	2.64669	0.04385
1.4735	2.64610	0.04447
1.4804	2.64553	0.04510
1.4873	2.64496	0.04572
1.4942	2.64439	0.04634
1.5011	2.64384	0.04696
1.5079	2.64329	0.04758
1.5148	2.64274	0.04820
1.5217	2.64221	0.04882
1.5286	2.64167	0.04943
1.5356	2.64115	0.05005
1.5425	2.64062	0.05066
1.5494	2.64011	0.05126
1.5563	2.63960	0.05187
1.5632	2.63909	0.05247
1.5701	2.63859	0.05307
1.5770	2.63809	0.05367
1.5839	2.63760	0.05427
1.5909	2.63712	0.05486
1.5978	2.63663	0.05545
1.6047	2.63616	0.05603
1.6116	2.63568	0.05661
1.6186	2.63522	0.05719
1.6255	2.63475	0.05776
1.6324	2.63429	0.05833
1.6394	2.63383	0.05890
1.6463	2.63338	0.05946
1.6533	2.63293	0.06002
1.6602	2.63249	0.06057
1.6672	2.63205	0.06112
1.6741	2.63161	0.06167
1.6811	2.63117	0.06221
1.6880	2.63074	0.06275
