Material: main / Cu / Querry
Optical constants. M. R. Querry. Optical constants, Contractor Report CRDC-CR-85034 (1985)
Comments: Cu ingot.
wavelength (um)	n	k
0.2100	1.243	1.376
0.2300	1.404	1.490
0.2500	1.567	1.474
0.2700	1.598	1.391
0.2900	1.522	1.360
0.3100	1.428	1.421
0.3300	1.379	1.511
0.3500	1.338	1.593
0.3700	1.297	1.683
0.3900	1.263	1.773
0.4100	1.229	1.862
0.4300	1.196	1.952
0.4500	1.167	2.042
0.4700	1.142	2.119
0.4900	1.110	2.186
0.5100	1.073	2.235
0.5300	1.002	2.242
0.5500	0.825	2.248
0.5700	0.565	2.382
0.5900	0.376	2.661
0.6100	0.317	2.957
0.6300	0.317	3.197
0.6500	0.326	3.400
0.6700	0.332	3.583
0.6900	0.339	3.757
0.7100	0.347	3.923
0.7300	0.354	4.084
0.7500	0.360	4.240
0.7700	0.367	4.396
0.7900	0.377	4.550
0.8100	0.390	4.699
0.8300	0.403	4.843
0.8500	0.416	4.982
0.8700	0.425	5.116
0.8900	0.431	5.253
0.9100	0.437	5.387
0.9300	0.441	5.522
0.9500	0.443	5.656
0.9700	0.445	5.795
0.9900	0.454	5.934
1.0097	0.463	6.128
1.0300	0.462	6.195
1.0500	0.464	6.331
1.0700	0.468	6.469
1.0900	0.474	6.608
1.1100	0.487	6.743
1.1300	0.496	6.870
1.1500	0.499	7.001
1.1700	0.503	7.133
1.1900	0.509	7.269
1.2100	0.522	7.402
1.2300	0.528	7.528
1.2500	0.532	7.662
1.2700	0.543	7.795
1.2900	0.553	7.924
1.3100	0.563	8.052
1.3314	0.572	8.179
1.3500	0.581	8.305
1.3700	0.589	8.429
1.3900	0.593	8.553
1.4100	0.597	8.680
1.4300	0.600	8.807
1.4500	0.602	8.938
1.4700	0.608	9.071
1.4900	0.618	9.202
1.5100	0.630	9.330
1.5300	0.639	9.452
1.5500	0.642	9.579
1.5700	0.648	9.710
1.5900	0.659	9.839
1.6100	0.669	9.966
1.6300	0.681	10.093
1.6500	0.695	10.215
1.6700	0.703	10.334
1.6900	0.710	10.454
1.7100	0.716	10.574
1.7300	0.718	10.694
1.7500	0.718	10.816
1.7700	0.720	10.942
1.7900	0.722	11.067
1.8100	0.724	11.191
1.8300	0.721	11.321
1.8500	0.727	11.456
1.8700	0.739	11.583
1.8900	0.742	11.703
1.9100	0.741	11.831
1.9300	0.745	11.962
1.9500	0.750	12.091
1.9700	0.754	12.221
1.9900	0.759	12.352
2.0100	0.766	12.484
2.0300	0.775	12.615
2.0500	0.785	12.745
2.0700	0.793	12.874
2.0900	0.802	13.004
2.1100	0.811	13.132
2.1300	0.823	13.262
2.1500	0.832	13.389
2.1700	0.843	13.518
2.1900	0.854	13.644
2.2100	0.863	13.772
2.2300	0.874	13.900
2.2500	0.885	14.026
2.2700	0.895	14.154
2.2900	0.908	14.280
2.3100	0.919	14.407
2.3300	0.930	14.534
2.3500	0.941	14.660
2.3700	0.954	14.786
2.3900	0.965	14.910
2.4100	0.975	15.035
2.4300	0.988	15.160
2.4500	0.998	15.285
2.4700	1.008	15.410
2.4900	1.018	15.538
2.5063	1.029	15.644
2.5189	1.038	15.724
2.5316	1.048	15.804
2.5445	1.056	15.884
2.5575	1.065	15.964
2.5707	1.074	16.046
2.5840	1.082	16.129
2.5974	1.091	16.212
2.6110	1.100	16.296
2.6247	1.109	16.381
2.6385	1.118	16.467
2.6525	1.127	16.554
2.6667	1.137	16.642
2.6810	1.147	16.730
2.6954	1.156	16.819
2.7100	1.167	16.910
2.7248	1.178	17.001
2.7397	1.188	17.092
2.7548	1.198	17.185
2.7701	1.210	17.278
2.7855	1.221	17.372
2.8011	1.232	17.467
2.8169	1.243	17.562
2.8329	1.254	17.658
2.8490	1.266	17.755
2.8653	1.276	17.853
2.8818	1.287	17.953
2.8986	1.299	18.053
2.9155	1.309	18.153
2.9326	1.320	18.256
2.9499	1.330	18.359
2.9674	1.339	18.464
2.9851	1.350	18.570
3.0030	1.360	18.677
3.0211	1.370	18.786
3.0395	1.380	18.896
3.0581	1.390	19.008
3.0769	1.400	19.121
3.0960	1.409	19.236
3.1153	1.420	19.353
3.1348	1.430	19.471
3.1546	1.441	19.590
3.1746	1.451	19.711
3.1949	1.462	19.834
3.2154	1.472	19.959
3.2362	1.483	20.085
3.2573	1.494	20.214
3.2787	1.508	20.345
3.3003	1.520	20.475
3.3223	1.531	20.609
3.3445	1.544	20.744
3.3670	1.557	20.881
3.3898	1.570	21.020
3.4130	1.584	21.161
3.4364	1.597	21.304
3.4602	1.611	21.450
3.4843	1.627	21.597
3.5088	1.642	21.744
3.5336	1.656	21.895
3.5587	1.671	22.049
3.5842	1.688	22.204
3.6101	1.704	22.361
3.6364	1.720	22.521
3.6630	1.736	22.684
3.6900	1.754	22.850
3.7175	1.773	23.017
3.7453	1.792	23.185
3.7736	1.810	23.357
3.8023	1.829	23.532
3.8314	1.849	23.710
3.8610	1.870	23.890
3.8911	1.892	24.073
3.9216	1.913	24.259
3.9526	1.936	24.447
3.9841	1.959	24.640
4.0161	1.984	24.836
4.0486	2.010	25.034
4.0816	2.039	25.234
4.1152	2.066	25.434
4.1494	2.092	25.641
4.1841	2.124	25.852
4.2194	2.156	26.061
4.2553	2.186	26.275
4.2918	2.216	26.494
4.3290	2.251	26.717
4.3668	2.287	26.938
4.4053	2.321	27.163
4.4444	2.356	27.393
4.4843	2.391	27.626
4.5249	2.429	27.863
4.5662	2.468	28.101
4.6083	2.505	28.343
4.6512	2.544	28.597
4.6948	2.579	28.836
4.7393	2.616	29.091
4.7847	2.654	29.347
4.8309	2.691	29.609
4.8780	2.728	29.876
4.9261	2.766	30.146
4.9751	2.801	30.419
5.0251	2.834	30.703
5.1020	2.888	31.137
5.1282	2.905	31.286
5.1813	2.943	31.584
5.2356	2.975	31.889
5.2910	3.007	32.203
5.3476	3.041	32.526
5.4054	3.075	32.856
5.4645	3.111	33.195
5.5249	3.145	33.540
5.5866	3.179	33.896
5.6497	3.216	34.260
5.7143	3.249	34.636
5.7803	3.290	35.025
5.8480	3.332	35.422
5.9172	3.377	35.830
5.9880	3.425	36.251
6.0606	3.481	36.679
6.1350	3.535	37.113
6.2112	3.591	37.563
6.2893	3.653	38.022
6.3694	3.715	38.496
6.4516	3.788	38.981
6.5359	3.865	39.472
6.6225	3.939	39.976
6.7114	4.022	40.496
6.8027	4.111	41.022
6.8966	4.198	41.561
6.9930	4.292	42.116
7.0922	4.393	42.680
7.1942	4.491	43.255
7.2993	4.591	43.949
7.4074	4.695	44.459
7.5188	4.804	45.087
7.6336	4.922	45.728
7.7519	5.036	46.379
7.8740	5.147	47.056
8.0000	5.264	47.758
8.1301	5.392	48.481
8.2645	5.520	49.220
8.4034	5.652	49.987
8.5470	5.789	50.778
8.6957	5.933	51.597
8.8496	6.083	52.442
9.0090	6.240	53.316
9.1743	6.405	54.220
9.3458	6.577	55.155
9.5238	6.758	56.127
9.7087	6.957	57.129
9.9010	7.160	58.161
10.1010	7.375	59.238
10.3093	7.610	60.349
10.5263	7.856	61.494
10.7527	8.113	62.675
10.9890	8.376	63.891
11.2360	8.642	65.157
11.4943	8.922	66.474
11.7647	9.217	67.838
12.0482	9.514	69.257
12.3457	9.834	70.732
12.6582	10.152	72.246
12.9870	10.455	73.829
13.3333	10.748	75.498
13.6986	11.052	77.262
14.0845	11.356	79.117
14.4928	11.661	81.071
14.9254	11.949	83.153
15.3846	12.268	85.364
15.8730	12.565	87.677
16.3934	12.813	90.192
16.9492	13.112	92.917
17.5439	13.422	95.800
18.1818	13.690	98.934
18.8679	14.000	102.349
19.6078	14.323	106.017
20.4082	14.609	110.046
21.2766	14.968	114.511
22.2222	15.406	119.378
23.2558	15.879	124.731
24.3902	16.427	130.692
25.6410	17.132	137.301
27.0270	17.941	144.658
28.5714	18.960	152.964
30.3030	20.293	162.270
32.2581	21.918	172.804
34.4828	24.013	184.793
37.0370	26.632	198.573
40.0000	30.080	214.517
43.4783	34.533	233.188
47.6190	40.571	255.237
52.6316	48.419	281.859
