Material: glass / lzos / BF11
Optical constants. LZOS Clear optical glass catalogue
wavelength (um)	n
0.3650	1.65181
0.40466	1.64242
0.43583	1.636984
0.47999	1.631167
0.48613	1.630491
0.4880	1.63029
0.5140	1.62774
0.5208	1.62713
0.5300	1.62635
0.54607	1.625092
0.5682	1.62353
0.58756	1.622305
0.58929	1.622200
0.6328	1.61986
0.64385	1.619339
0.6471	1.61919
0.65627	1.618781
0.6943	1.61724
0.70652	1.61680
0.7682	1.61483
0.8521	1.61270
0.8900	1.61189
1.0139	1.60967
1.0600	1.60896
1.1286	1.60797
1.3951	1.60466
1.5296	1.60310
1.8131	1.59977
1.9701	1.59783
2.2493	1.59411
2.3254	1.59302
