Material: glass / lzos / BF16
Optical constants. LZOS Clear optical glass catalogue
wavelength (um)	n
0.3650	1.70771
0.40466	1.69576
0.43583	1.688973
0.47999	1.681810
0.48613	1.680981
0.4880	1.68073
0.5140	1.67761
0.5208	1.67688
0.5300	1.67593
0.54607	1.674385
0.5682	1.67250
0.58756	1.671025
0.58929	1.670900
0.6328	1.66809
0.64385	1.667459
0.6471	1.66728
0.65627	1.666791
0.6943	1.66496
0.70652	1.66442
0.7682	1.66209
0.8521	1.65959
0.8900	1.65864
1.0139	1.65608
1.0600	1.65527
1.1286	1.65417
1.3951	1.65053
1.5296	1.64887
1.8131	1.64542
1.9701	1.64345
2.2493	1.63973
2.3254	1.63866
