Material: glass / lzos / BF21
Optical constants. LZOS Clear optical glass catalogue
wavelength (um)	n
0.3650	1.65512
0.40466	1.64142
0.43583	1.633797
0.47999	1.625854
0.48613	1.624944
0.4880	1.62467
0.5140	1.62126
0.5208	1.62046
0.5300	1.61943
0.54607	1.617772
0.5682	1.61573
0.58756	1.614132
0.5899	1.614000
0.6328	1.61098
0.64385	1.610316
0.6471	1.61013
0.65627	1.609604
0.6943	1.60766
0.70652	1.60709
0.7682	1.60463
0.8521	1.60203
0.8900	1.60105
1.0139	1.59843
1.0600	1.59761
1.1286	1.59650
1.3951	1.59290
1.5296	1.59128
1.8131	1.58791
1.9701	1.58596
2.2493	1.58223
2.3254	1.58115
