Material: glass / lzos / BF25
Optical constants. LZOS Clear optical glass catalogue
wavelength (um)	n
0.3650	1.64195
0.40466	1.63077
0.43583	1.624428
0.47999	1.617746
0.48613	1.616974
0.4880	1.61675
0.5140	1.61384
0.5208	1.61316
0.5300	1.61228
0.54607	1.610853
0.5682	1.60909
0.58756	1.607716
0.58929	1.607600
0.6328	1.60499
0.64385	1.604413
0.6471	1.60425
0.65627	1.603794
0.6943	1.60209
0.70652	1.60160
0.7682	1.59944
0.8521	1.59713
0.8900	1.59625
1.0139	1.59388
1.0600	1.59313
1.1286	1.59211
1.3951	1.58872
1.5296	1.58717
1.8131	1.58390
1.9701	1.58202
2.2493	1.57844
2.3254	1.57740
