Material: glass / lzos / BF8
Optical constants. LZOS Clear optical glass catalogue
wavelength (um)	n
0.3650	1.61535
0.40466	1.60468
0.43583	1.598623
0.47999	1.592244
0.48613	1.591509
0.4880	1.59130
0.5140	1.58853
0.5208	1.58788
0.5300	1.58704
0.54607	1.585690
0.5682	1.58401
0.58756	1.582713
0.58929	1.582600
0.6328	1.58011
0.64385	1.579558
0.6471	1.57940
0.65627	1.578969
0.6943	1.57736
0.70652	1.57689
0.7682	1.57483
0.8521	1.57263
0.8900	1.57180
1.0139	1.56953
1.0600	1.56882
1.1286	1.56784
1.3951	1.56459
1.5296	1.56308
1.8131	1.55991
1.9701	1.55808
2.2493	1.55455
2.3254	1.55355
