Material: glass / lzos / BK4
Optical constants. LZOS Clear optical glass catalogue
wavelength (um)	n
0.3650	1.55180
0.40466	1.54508
0.43583	1.541128
0.47999	1.536877
0.48613	1.536378
0.4880	1.53622
0.5140	1.53433
0.5208	1.53389
0.5300	1.53331
0.54607	1.532367
0.5682	1.53120
0.58756	1.530279
0.58929	1.530200
0.6328	1.52843
0.64385	1.528034
0.6471	1.52792
0.65627	1.527608
0.6943	1.52643
0.70652	1.52609
0.7682	1.52455
0.8521	1.52287
0.8900	1.52222
1.0139	1.52038
1.0600	1.51978
1.1286	1.51894
1.3951	1.51596
1.5296	1.51450
1.8131	1.51127
1.9701	1.50934
2.2493	1.50555
2.3254	1.50443
