Material: glass / lzos / BK6
Optical constants. LZOS Clear optical glass catalogue
wavelength (um)	n
0.3650	1.56226
0.40466	1.55529
0.43583	1.551204
0.47999	1.546792
0.48613	1.546276
0.4880	1.54612
0.5140	1.54417
0.5208	1.54371
0.5300	1.54311
0.54607	1.542136
0.5682	1.54093
0.58756	1.539982
0.58929	1.539900
0.6328	1.53807
0.64385	1.537664
0.6471	1.53755
0.65627	1.537226
0.6943	1.5360
0.70652	1.5357
0.7682	1.5341
0.8521	1.5324
0.8900	1.5317
1.0139	1.5298
1.0600	1.5292
1.1286	1.5284
1.3951	1.5254
1.5296	1.5239
1.8131	1.5207
1.9701	1.5188
2.2493	1.5151
2.3254	1.5140
