Material: glass / lzos / BK8
Optical constants. LZOS Clear optical glass catalogue
wavelength (um)	n
0.3650	1.56796
0.40466	1.56137
0.43583	1.557504
0.47999	1.553312
0.48613	1.552821
0.4880	1.55268
0.5140	1.55081
0.5208	1.55037
0.5300	1.54979
0.54607	1.548861
0.5682	1.54770
0.58756	1.546779
0.58929	1.546700
0.6328	1.54494
0.64385	1.544538
0.6471	1.54442
0.65627	1.544111
0.6943	1.54292
0.70652	1.54258
0.7682	1.54102
0.8521	1.53929
0.8900	1.53861
1.0139	1.53668
1.0600	1.53604
1.1286	1.53513
1.3951	1.53184
1.5296	1.53019
1.8131	1.52647
1.9701	1.52421
2.2493	1.51972
2.3254	1.51839
