Material: glass / lzos / CTK12
Optical constants. LZOS Clear optical glass catalogue
wavelength (um)	n
0.3650	1.72292
0.40466	1.71328
0.43583	1.707590
0.47999	1.701471
0.48613	1.700756
0.4880	1.70054
0.5140	1.69783
0.5208	1.69719
0.5300	1.69636
0.54607	1.695010
0.5682	1.69333
0.58756	1.692012
0.58929	1.691900
0.6328	1.68936
0.64385	1.688788
0.6471	1.68862
0.65627	1.688176
0.6943	1.68648
0.70652	1.68599
0.7682	1.68378
0.8521	1.68134
0.8900	1.68040
1.0139	1.67772
1.0600	1.67684
1.1286	1.67560
1.3951	1.67119
1.5296	1.66900
1.8131	1.66415
1.9701	1.66122
2.2493	1.65547
2.3254	1.65377
