Material: glass / lzos / CTK3
Optical constants. LZOS Clear optical glass catalogue
wavelength (um)	n
0.3650	1.68789
0.40466	1.67896
0.43583	1.673767
0.47999	1.668159
0.48613	1.667504
0.4880	1.66731
0.5140	1.66482
0.5208	1.66424
0.5300	1.66348
0.54607	1.662237
0.5682	1.66071
0.58756	1.659502
0.58929	1.659400
0.6328	1.65708
0.64385	1.656560
0.6471	1.65642
0.65627	1.656004
0.6943	1.65447
0.70652	1.65403
0.7682	1.65204
0.8521	1.64987
0.8900	1.64903
1.0139	1.64670
1.0600	1.64594
1.1286	1.64488
1.3951	1.64120
1.5296	1.63942
1.8131	1.63553
1.9701	1.63321
2.2493	1.62867
2.3254	1.62734
