Material: glass / lzos / CTK9
Optical constants. LZOS Clear optical glass catalogue
wavelength (um)	n
0.3650	1.77938
0.40466	1.76772
0.43583	1.760954
0.47999	1.753681
0.48613	1.752833
0.4880	1.75258
0.5140	1.74937
0.5208	1.74862
0.5300	1.74764
0.54607	1.746046
0.5682	1.74407
0.58756	1.742530
0.58929	1.742400
0.6328	1.73943
0.64385	1.738763
0.6471	1.73857
0.65627	1.738053
0.6943	1.73609
0.70652	1.73552
0.7682	1.73299
0.852	1.73024
0.8900	1.72919
1.0139	1.72625
1.0600	1.72531
1.1286	1.72399
1.3951	1.71941
1.5296	1.71718
1.8131	1.71230
1.9701	1.70936
2.2493	1.70353
2.3254	1.70179
