Material: glass / lzos / F1
Optical constants. LZOS Clear optical glass catalogue
wavelength (um)	n
0.3650	1.65782
0.40466	1.64269
0.43583	1.634312
0.47999	1.625647
0.48613	1.624657
0.4880	1.62436
0.5140	1.62066
0.5208	1.61979
0.5300	1.61868
0.54607	1.616878
0.5682	1.61467
0.58756	1.612945
0.58929	1.612800
0.6328	1.60955
0.64385	1.608833
0.6471	1.60863
0.65627	1.608067
0.6943	1.60597
0.70652	1.60537
0.7682	1.60273
0.8521	1.59994
0.8900	1.59889
1.0139	1.59609
1.0600	1.59522
1.1286	1.59404
1.3951	1.59021
1.5296	1.58850
1.8131	1.58493
1.9701	1.58289
2.2493	1.57899
2.3254	1.57785
