Material: glass / lzos / F13
Optical constants. LZOS Clear optical glass catalogue
wavelength (um)	n
0.3650	1.666345
0.40466	1.65069
0.43583	1.642054
0.47999	1.633116
0.48613	1.632096
0.4880	1.63179
0.5140	1.62798
0.5208	1.62709
0.5300	1.62594
0.54607	1.624083
0.5682	1.62181
0.58756	1.620048
0.58929	1.619900
0.6328	1.61656
0.64385	1.615822
0.6471	1.61561
0.65627	1.615036
0.6943	1.61289
0.70652	1.612272
0.7682	1.60957
0.8521	1.60671
0.8900	1.60564
1.0139	1.60278
1.0600	1.60189
1.1286	1.60068
1.3951	1.59678
1.5296	1.59503
1.8131	1.59142
1.9701	1.58937
2.2493	1.58548
2.3254	1.58435
