Material: glass / lzos / F4
Optical constants. LZOS Clear optical glass catalogue
wavelength (um)	n
0.3650	1.67162
0.40466	1.65559
0.43583	1.646779
0.47999	1.637672
0.48613	1.636632
0.4880	1.63632
0.5140	1.63243
0.5208	1.63152
0.5300	1.63035
0.54607	1.628472
0.5682	1.62615
0.58756	1.624352
0.58929	1.624200
0.6328	1.62081
0.64385	1.620051
0.6471	1.61985
0.65627	1.619252
0.6943	1.61708
0.70652	1.61645
0.7682	1.61370
0.8521	1.61081
0.8900	1.60973
1.0139	1.60684
1.0600	1.60594
1.1286	1.60473
1.3951	1.60083
1.5296	1.59909
1.8131	1.59551
1.9701	1.59347
2.2493	1.58960
2.3254	1.58848
