Material: glass / lzos / F8
Optical constants. LZOS Clear optical glass catalogue
wavelength (um)	n
0.3650	1.67288
0.40466	1.65661
0.43583	1.647660
0.47999	1.638430
0.48613	1.637377
0.4880	1.63715
0.5140	1.63354
0.5208	1.63260
0.5300	1.63133
0.54607	1.629113
0.5682	1.62689
0.58756	1.624953
0.58929	1.624800
0.6328	1.62140
0.64385	1.620614
0.6471	1.62040
0.65627	1.619807
0.6943	1.61762
0.70652	1.61697
0.7682	1.61434
0.8521	1.61130
0.8900	1.61019
1.0139	1.60730
1.0600	1.60642
1.1286	1.60519
1.3951	1.60132
1.5296	1.59964
1.8131	1.59614
1.9701	1.59419
2.2493	1.59051
2.3254	1.58944
