Material: glass / lzos / KF6
Optical constants. LZOS Clear optical glass catalogue
wavelength (um)	n
0.3650	1.52229
0.40466	1.51543
0.43583	1.511451
0.47999	1.507166
0.48613	1.506667
0.4880	1.50652
0.5140	1.50463
0.5208	1.50418
0.5300	1.50360
0.54607	1.502657
0.5682	1.50150
0.58756	1.500579
0.58929	1.500500
0.6328	1.49874
0.64385	1.498341
0.6471	1.49823
0.65627	1.497917
0.6943	1.49674
0.70652	1.49640
0.7682	1.49487
0.8521	1.49319
0.8900	1.49253
1.0139	1.49069
1.0600	1.49009
1.1286	1.48924
1.3951	1.48622
1.5296	1.48472
1.8131	1.48141
1.9701	1.47942
2.2493	1.47550
2.3254	1.47434
