Material: glass / lzos / KF7
Optical constants. LZOS Clear optical glass catalogue
wavelength (um)	n
0.3650	1.54363
0.40466	1.53512
0.43583	1.530324
0.47999	1.525256
0.48613	1.524670
0.4880	1.52449
0.5140	1.52228
0.5208	1.52176
0.5300	1.52109
0.54607	1.520005
0.5682	1.51865
0.58756	1.517590
0.58929	1.517500
0.6328	1.51549
0.64385	1.515033
0.6471	1.51491
0.65627	1.514550
0.6943	1.51322
0.70652	1.51283
0.7682	1.51111
0.8521	1.50923
0.8900	1.50850
1.0139	1.50647
1.0600	1.50581
1.1286	1.50488
1.3951	1.50163
1.5296	1.50005
1.8131	1.49656
1.9701	1.49447
2.2493	1.49039
2.3254	1.48918
