Material: glass / lzos / LF5
Optical constants. LZOS Clear optical glass catalogue
wavelength (um)	n
0.3650	1.61197
0.40466	1.59968
0.43583	1.592809
0.47999	1.585638
0.48613	1.584815
0.4880	1.58457
0.5140	1.58149
0.5208	1.58076
0.5300	1.57983
0.54607	1.578326
0.5682	1.57647
0.58756	1.575022
0.58929	1.574900
0.6328	1.57215
0.64385	1.571544
0.6471	1.57137
0.65627	1.570895
0.6943	1.56912
0.70652	1.56860
0.7682	1.56634
0.8521	1.56393
0.8900	1.56303
1.0139	1.56056
1.0600	1.55979
1.1286	1.55872
1.3951	1.55521
1.5296	1.55359
1.8131	1.55016
1.9701	1.54816
2.2493	1.54429
2.3254	1.54316
