Material: glass / lzos / LK3
Optical constants. LZOS Clear optical glass catalogue
wavelength (um)	n
0.36500	1.504140
0.40466	1.499000
0.43583	1.495963
0.47999	1.492655
0.48613	1.492267
0.48800	1.492160
0.51400	1.490680
0.52080	1.490330
0.53000	1.489870
0.54607	1.489118
0.56820	1.488200
0.58756	1.487464
0.58929	1.487400
0.63280	1.485980
0.64385	1.485654
0.64710	1.485560
0.65627	1.485307
0.69430	1.484340
0.70652	1.484060
0.76820	1.482770
0.85210	1.481320
0.89000	1.480750
1.01390	1.479090
1.06000	1.478520
1.12860	1.477720
1.39510	1.474740
1.52960	1.473210
1.81310	1.469740
1.97010	1.467630
2.24930	1.463460
2.32540	1.462230
