Material: glass / lzos / LK5
Optical constants. LZOS Clear optical glass catalogue
wavelength (um)	n
0.36500	1.495610
0.40466	1.490240
0.43583	1.487065
0.47999	1.483601
0.48613	1.483194
0.48800	1.483070
0.51400	1.481520
0.52080	1.481160
0.53000	1.480680
0.54607	1.479902
0.56820	1.478930
0.58756	1.478166
0.58929	1.478100
0.63280	1.476600
0.64385	1.476267
0.64710	1.476170
0.65627	1.475904
0.69430	1.474890
0.70652	1.474590
0.76820	1.473240
0.85210	1.471710
0.89000	1.471110
1.01390	1.469330
1.06000	1.468730
1.12860	1.467860
1.39510	1.464630
1.52960	1.462960
1.81310	1.459180
1.97010	1.456870
2.24930	1.452330
2.32540	1.450980
