Material: glass / lzos / LK6
Optical constants. LZOS Clear optical glass catalogue
wavelength (um)	n
0.36500	1.487360
0.40466	1.482150
0.43583	1.479071
0.47999	1.475722
0.48613	1.475328
0.48800	1.475210
0.51400	1.473710
0.52080	1.473360
0.53000	1.472900
0.54607	1.472142
0.56820	1.471210
0.58756	1.470465
0.58929	1.470400
0.63280	1.468970
0.64385	1.468637
0.64710	1.468550
0.65627	1.468288
0.69430	1.467320
0.70652	1.467030
0.76820	1.465740
0.85210	1.464280
0.89000	1.463710
1.01390	1.462030
1.06000	1.461460
1.12860	1.460650
1.39510	1.457630
1.52960	1.456090
1.81310	1.452590
1.97010	1.450470
2.24930	1.446300
2.32540	1.445070
