Material: glass / lzos / LK7
Optical constants. LZOS Clear optical glass catalogue
wavelength (um)	n
0.3650	1.50025
0.40466	1.49490
0.43583	1.491739
0.47999	1.488299
0.48613	1.487893
0.4880	1.48777
0.5140	1.48622
0.5208	1.48586
0.5300	1.48538
0.54607	1.484608
0.5682	1.48363
0.58756	1.482866
0.58929	1.482800
0.6328	1.48131
0.64385	1.480975
0.6471	1.48088
0.65627	1.480613
0.6943	1.47960
0.70652	1.47931
0.7682	1.47797
0.8521	1.47645
0.8900	1.47585
1.0139	1.47411
1.0600	1.47352
1.1286	1.47267
1.3951	1.46951
1.5296	1.46789
1.8131	1.46420
1.9701	1.46194
2.2493	1.45748
2.3254	1.45615
