Material: glass / lzos / OF1
Optical constants. LZOS Clear optical glass catalogue
wavelength (um)	n
0.3650	1.55515
0.40466	1.54698
0.43583	1.542251
0.47999	1.537207
0.48613	1.536620
0.4880	1.53644
0.5140	1.53422
0.5208	1.53370
0.5300	1.53302
0.54607	1.531924
0.58756	1.529492
0.58929	1.529400
0.6328	1.52735
0.64385	1.526892
0.6471	1.52676
0.65627	1.526400
0.5682	1.53056
0.6943	1.52504
0.70652	1.52464
0.7682	1.52287
0.8521	1.52093
0.8900	1.52018
1.0139	1.51805
1.0600	1.51735
1.1286	1.51636
1.3951	1.51285
1.5296	1.51110
1.8131	1.50723
1.9701	1.50489
2.2493	1.50029
2.3254	1.49893
