Material: glass / lzos / TF10
Optical constants. LZOS Clear optical glass catalogue
wavelength (um)	n
0.3650	1.89876
0.40466	1.86571
0.43583	1.848338
0.47999	1.830897
0.48613	1.828936
0.4880	1.82836
0.5140	1.82109
0.5208	1.81940
0.5300	1.81724
0.54607	1.813767
0.5682	1.80953
0.58756	1.806274
0.58929	1.806000
0.6328	1.79991
0.64385	1.798572
0.6471	1.79819
0.65627	1.797156
0.6943	1.79332
0.70652	1.79222
0.7682	1.78749
0.8521	1.78263
0.8900	1.78085
1.0139	1.77626
1.0600	1.77490
1.1286	1.77310
1.3951	1.76780
1.5296	1.76566
1.8131	1.76159
1.9701	1.75941
2.2493	1.75540
2.3254	1.75425
