Material: glass / lzos / TF4
Optical constants. LZOS Clear optical glass catalogue
wavelength (um)	n
0.3650	1.81477
0.40466	1.78860
0.43583	1.774548
0.47999	1.760321
0.48613	1.758714
0.4880	1.75823
0.5140	1.75226
0.5208	1.75087
0.5300	1.74909
0.54607	1.746231
0.5682	1.74273
0.58756	1.740024
0.58929	1.739800
0.6328	1.73473
0.64385	1.733616
0.6471	1.73330
0.65627	1.732434
0.6943	1.72923
0.70652	1.72831
0.7682	1.72432
0.8521	1.72019
0.8900	1.71868
1.0139	1.71470
1.0600	1.71350
1.1286	1.71191
1.3951	1.70708
1.5296	1.70506
1.8131	1.70113
1.9701	1.69899
2.2493	1.69507
2.3254	1.69396
