Material: glass / lzos / TF7
Optical constants. LZOS Clear optical glass catalogue
wavelength (um)	n
0.3650	1.80126
0.40466	1.77566
0.43583	1.761954
0.47999	1.748060
0.48613	1.746491
0.4880	1.74603
0.5140	1.74019
0.5208	1.73884
0.5300	1.73709
0.54607	1.734294
0.5682	1.73087
0.58756	1.728222
0.58929	1.728000
0.6328	1.72304
0.64385	1.72194
0.6471	1.72164
0.65627	1.72079
0.6943	1.71764
0.70652	1.71674
0.7682	1.71283
0.8521	1.70878
0.8900	1.70729
1.0139	1.70339
1.0600	1.70222
1.1286	1.70066
1.3951	1.69594
1.5296	1.69397
1.8131	1.69015
1.9701	1.68807
2.2493	1.68426
2.3254	1.68318
