Material: glass / lzos / TF8
Optical constants. LZOS Clear optical glass catalogue
wavelength (um)	n
0.3650	1.75119
0.40466	1.72992
0.43583	1.718363
0.47999	1.706541
0.48613	1.705199
0.4880	1.70480
0.5140	1.69980
0.5208	1.69864
0.5300	1.69714
0.54607	1.694729
0.5682	1.69178
0.58756	1.689492
0.58929	1.689300
0.6328	1.68500
0.64385	1.684055
0.6471	1.68379
0.65627	1.683049
0.6943	1.68031
0.70652	1.67952
0.7682	1.67610
0.8521	1.67252
0.8900	1.67120
1.0139	1.66770
1.0600	1.66663
1.1286	1.66519
1.3951	1.66072
1.5296	1.65880
1.8131	1.65497
1.9701	1.65286
2.2493	1.64895
2.3254	1.64784
