Material: glass / lzos / TK12
Optical constants. LZOS Clear optical glass catalogue
wavelength (um)	n
0.3650	1.59084
0.40466	1.58402
0.43583	1.580001
0.47999	1.575661
0.48613	1.575151
0.4880	1.57499
0.5140	1.57306
0.5208	1.57260
0.5300	1.57201
0.54607	1.571039
0.5682	1.56983
0.58756	1.568881
0.58929	1.568800
0.6328	1.56697
0.64385	1.566555
0.6471	1.56644
0.65627	1.566111
0.6943	1.56488
0.70652	1.56452
0.7682	1.56290
0.8521	1.56110
0.8900	1.56039
1.0139	1.55838
1.0600	1.55771
1.1286	1.55676
1.3951	1.55331
1.5296	1.55158
1.8131	1.54770
1.9701	1.54535
2.2493	1.54072
2.3254	1.53935
