Material: glass / lzos / TK16
Optical constants. LZOS Clear optical glass catalogue
wavelength (um)	n
0.3650	1.63862
0.40466	1.63049
0.43583	1.625734
0.47999	1.620598
0.48613	1.619999
0.4880	1.61983
0.5140	1.61756
0.5208	1.61702
0.5300	1.61633
0.54607	1.615192
0.5682	1.61379
0.58756	1.612694
0.58929	1.612600
0.6328	1.61048
0.64385	1.610007
0.6471	1.60987
0.65627	1.609499
0.6943	1.60810
0.70652	1.60769
0.7682	1.60587
0.8521	1.60389
0.8900	1.60313
1.0139	1.60101
1.0600	1.60032
1.1286	1.59937
1.3951	1.59605
1.5296	1.59445
1.8131	1.59097
1.9701	1.58890
2.2493	1.58485
2.3254	1.58366
