Material: glass / lzos / TK17
Optical constants. LZOS Clear optical glass catalogue
wavelength (um)	n
0.3650	1.65401
0.40466	1.64587
0.43583	1.641100
0.47999	1.635953
0.48613	1.635351
0.4880	1.63517
0.5140	1.63289
0.5208	1.63235
0.5300	1.63165
0.54607	1.630513
0.5682	1.62910
0.58756	1.627995
0.58929	1.627900
0.6328	1.62576
0.64385	1.625284
0.6471	1.62515
0.65627	1.624771
0.6943	1.62335
0.70652	1.62294
0.7682	1.62109
0.8521	1.61907
0.8900	1.61829
1.0139	1.61609
1.0600	1.61538
1.1286	1.61437
1.3951	1.61082
1.5296	1.60907
1.8131	1.60523
1.9701	1.60292
2.2493	1.59840
2.3254	1.59707
