Material: glass / lzos / TK2
Optical constants. LZOS Clear optical glass catalogue
wavelength (um)	n
0.3650	1.59716
0.40466	1.58941
0.43583	1.584874
0.47999	1.579998
0.48613	1.579428
0.4880	1.57926
0.5140	1.57710
0.5208	1.57659
0.5300	1.57593
0.54607	1.574860
0.5682	1.57353
0.58756	1.572489
0.58929	1.572400
0.6328	1.57040
0.64385	1.569948
0.6471	1.56982
0.65627	1.569468
0.6943	1.56814
0.70652	1.56776
0.7682	1.56604
0.8521	1.56418
0.8900	1.56346
1.0139	1.56146
1.0600	1.56081
1.1286	1.55991
1.3951	1.55678
1.5296	1.55527
1.8131	1.55198
1.9701	1.55003
2.2493	1.54623
2.3254	1.54512
