Material: glass / lzos / TK21
Optical constants. LZOS Clear optical glass catalogue
wavelength (um)	n
0.3650	1.68949
0.40466	1.67908
0.43583	1.673064
0.47999	1.666653
0.48613	1.665908
0.4880	1.66569
0.5140	1.66288
0.5208	1.66221
0.5300	1.66136
0.54607	1.659961
0.5682	1.65825
0.58756	1.656914
0.58929	1.656800
0.6328	1.65424
0.64385	1.653667
0.6471	1.65351
0.65627	1.653058
0.6943	1.65139
0.70652	1.65090
0.7682	1.64876
0.8521	1.64648
0.8900	1.64561
1.0139	1.64326
1.0600	1.64251
1.1286	1.64150
1.3951	1.63814
1.5296	1.63660
1.8131	1.63336
1.9701	1.63149
2.2493	1.62793
2.3254	1.62690
