Material: glass / lzos / TK23
Optical constants. LZOS Clear optical glass catalogue
wavelength (um)	n
0.3650	1.61262
0.40466	1.60532
0.43583	1.601042
0.47999	1.596406
0.48613	1.595862
0.4880	1.59570
0.5140	1.59363
0.5208	1.59314
0.5300	1.59251
0.54607	1.591471
0.5682	1.59019
0.58756	1.589188
0.58929	1.589100
0.6328	1.58715
0.64385	1.586711
0.6471	1.58659
0.65627	1.586242
0.6943	1.58495
0.70652	1.58457
0.7682	1.58287
0.8521	1.58100
0.8900	1.58027
1.0139	1.57821
1.0600	1.57753
1.1286	1.57657
1.3951	1.57316
1.5296	1.57145
1.8131	1.56765
1.9701	1.56533
2.2493	1.56074
2.3254	1.55937
