Material: glass / lzos / TK9
Optical constants. LZOS Clear optical glass catalogue
wavelength (um)	n
0.3650	1.64583
0.40466	1.63675
0.43583	1.631483
0.47999	1.625838
0.48613	1.625181
0.4880	1.62499
0.5140	1.62250
0.5208	1.62191
0.5300	1.62116
0.54607	1.619926
0.5682	1.61840
0.58756	1.617202
0.58929	1.617100
0.6328	1.61482
0.64385	1.614307
0.6471	1.61416
0.65627	1.613761
0.6943	1.61226
0.70652	1.61182
0.7682	1.60989
0.8521	1.60720
0.8900	1.60701
1.0139	1.60482
1.0600	1.60412
1.1286	1.60316
1.3951	1.59990
1.5296	1.59836
1.8131	1.59505
1.9701	1.59310
2.2493	1.58932
2.3254	1.58821
