Material: inorganic / SnSe2 / Ermolaev
Optical constants. G. A. Ermolaev, D. I. Yakubovsky, M. A. El-Sayed, M. K. Tatmyshevskiy, A. B. Mazitov, A. A. Popkova, I. M. Antropov, V. O. Bessonov, A. S. Slavich, G. I. Tselikov, I. A. Kruglov, S. M. Novikov, A. A. Vyshnevyy, A. A. Fedyanin, A. V. Arsenin, V. S. Volkov. Broadband optical constants and nonlinear properties of SnS2 and SnSe2, Nanomaterials 12, 141 (2022) (Numerical data kindly provided by Georgy Ermolaev)
Comments: 6.5 nm CVD SnSe2.
Specs: {"n_absolute": true, "wavelength_vacuum": true, "film_thickness": "6.5 nm", "substrate": "SiO2", "deposition_method": "CVD"}
wavelength (um)	n	k
0.300	2.88950	2.59845
0.308	3.29761	2.55695
0.316	3.63316	2.36615
0.324	3.84006	2.09635
0.332	3.92256	1.82546
0.340	3.91977	1.59819
0.348	3.87168	1.42627
0.356	3.80611	1.30473
0.364	3.73954	1.22353
0.372	3.68099	1.17251
0.380	3.63502	1.14270
0.388	3.60349	1.12653
0.396	3.58643	1.11765
0.404	3.58257	1.11088
0.412	3.58968	1.10226
0.420	3.60494	1.08902
0.428	3.62533	1.06961
0.436	3.64793	1.04358
0.444	3.67024	1.01131
0.452	3.69036	0.97380
0.460	3.70698	0.93238
0.468	3.71940	0.88843
0.476	3.72740	0.84327
0.484	3.73110	0.79800
0.492	3.73085	0.75352
0.500	3.72714	0.71048
0.508	3.72050	0.66931
0.516	3.71144	0.63030
0.524	3.70046	0.59357
0.532	3.68799	0.55916
0.540	3.67440	0.52704
0.548	3.66001	0.49712
0.556	3.64507	0.46931
0.564	3.62981	0.44346
0.572	3.61439	0.41945
0.580	3.59895	0.39713
0.588	3.58360	0.37639
0.596	3.56841	0.35710
0.604	3.55346	0.33913
0.612	3.53878	0.32237
0.620	3.52442	0.30674
0.628	3.51040	0.29213
0.636	3.49673	0.27846
0.644	3.48342	0.26566
0.652	3.47048	0.25364
0.660	3.45791	0.24236
0.668	3.44571	0.23174
0.676	3.43386	0.22175
0.684	3.42237	0.21232
0.692	3.41123	0.20343
0.700	3.40042	0.19502
0.708	3.38994	0.18706
0.716	3.37978	0.17952
0.724	3.36992	0.17237
0.732	3.36036	0.16559
0.740	3.35109	0.15914
0.748	3.34210	0.15300
0.756	3.33337	0.14716
0.764	3.32490	0.14159
0.772	3.31668	0.13629
0.780	3.30870	0.13122
0.788	3.30094	0.12637
0.796	3.29341	0.12175
0.804	3.28609	0.11732
0.812	3.27897	0.11307
0.820	3.27205	0.10901
0.828	3.26532	0.10511
0.836	3.25877	0.10137
0.844	3.25240	0.09778
0.852	3.24620	0.09434
0.860	3.24015	0.09102
0.868	3.23427	0.08784
0.876	3.22854	0.08477
0.884	3.22295	0.08182
0.892	3.21751	0.07898
0.900	3.21219	0.07624
0.908	3.20702	0.07360
0.916	3.20196	0.07106
0.924	3.19703	0.06860
0.932	3.19221	0.06623
0.940	3.18751	0.06395
0.948	3.18292	0.06174
0.956	3.17844	0.05960
0.964	3.17406	0.05754
0.972	3.16977	0.05555
0.980	3.16558	0.05362
0.988	3.16149	0.05176
0.996	3.15748	0.04996
1.004	3.15357	0.04821
1.012	3.14973	0.04653
1.020	3.14598	0.04489
1.028	3.14231	0.04331
1.036	3.13871	0.04178
1.044	3.13519	0.04029
1.052	3.13174	0.03886
1.060	3.12836	0.03746
1.068	3.12505	0.03612
1.076	3.12181	0.03481
1.084	3.11863	0.03354
1.092	3.11551	0.03231
1.100	3.11245	0.03112
1.108	3.10945	0.02997
1.116	3.10651	0.02885
1.124	3.10362	0.02776
1.132	3.10079	0.02671
1.140	3.09801	0.02569
1.148	3.09528	0.02470
1.156	3.09260	0.02375
1.164	3.08997	0.02282
1.172	3.08739	0.02191
1.180	3.08485	0.02104
1.188	3.08236	0.02019
1.196	3.07991	0.01937
1.204	3.07751	0.01858
1.212	3.07515	0.01780
1.220	3.07283	0.01706
1.228	3.07055	0.01633
1.236	3.06830	0.01563
1.244	3.06610	0.01495
1.252	3.06393	0.01429
1.260	3.06180	0.01365
1.268	3.05970	0.01304
1.276	3.05764	0.01244
1.284	3.05561	0.01186
1.292	3.05362	0.01130
1.300	3.05166	0.01076
1.308	3.04973	0.01023
1.316	3.04783	0.00973
1.324	3.04596	0.00924
1.332	3.04412	0.00876
1.340	3.04231	0.00831
1.348	3.04053	0.00787
1.356	3.03878	0.00744
1.364	3.03705	0.00703
1.372	3.03535	0.00663
1.380	3.03368	0.00625
1.388	3.03204	0.00589
1.396	3.03042	0.00553
1.404	3.02882	0.00519
1.412	3.02725	0.00487
1.420	3.02570	0.00455
1.428	3.02418	0.00425
1.436	3.02268	0.00396
1.444	3.02120	0.00368
1.452	3.01975	0.00342
1.460	3.01832	0.00317
1.468	3.01691	0.00293
1.476	3.01552	0.00269
1.484	3.01415	0.00247
1.492	3.01281	0.00227
1.500	3.01148	0.00207
1.508	3.01018	0.00188
1.516	3.00889	0.00170
1.524	3.00763	0.00153
1.532	3.00638	0.00138
1.540	3.00516	0.00123
1.548	3.00395	0.00109
1.556	3.00276	9.56715E-04
1.564	3.00159	8.35573E-04
1.572	3.00044	7.23301E-04
1.580	2.99931	6.19738E-04
1.588	2.99819	5.24729E-04
1.596	2.99710	4.38122E-04
1.604	2.99602	3.59768E-04
1.612	2.99496	2.89522E-04
1.620	2.99392	2.27244E-04
1.628	2.99289	1.72796E-04
1.636	2.99188	1.26043E-04
1.644	2.99090	8.68550E-05
1.652	2.98992	5.51032E-05
1.660	2.98897	3.06628E-05
1.668	2.98804	1.34117E-05
1.676	2.98712	3.23072E-06
1.684	2.98623	0
1.692	2.98535	0
1.700	2.98450	0
1.708	2.98367	0
1.716	2.98285	0
1.724	2.98205	0
1.732	2.98126	0
1.740	2.98049	0
1.748	2.97973	0
1.756	2.97898	0
1.764	2.97825	0
1.772	2.97753	0
1.780	2.97682	0
1.788	2.97613	0
1.796	2.97544	0
1.804	2.97477	0
1.812	2.97411	0
1.820	2.97346	0
1.828	2.97282	0
1.836	2.97218	0
1.844	2.97156	0
1.852	2.97095	0
1.860	2.97035	0
1.868	2.96975	0
1.876	2.96917	0
1.884	2.96859	0
1.892	2.96803	0
1.900	2.96747	0
1.908	2.96692	0
1.916	2.96637	0
1.924	2.96584	0
1.932	2.96531	0
1.940	2.96479	0
1.948	2.96428	0
1.956	2.96377	0
1.964	2.96327	0
1.972	2.96278	0
1.980	2.96230	0
1.988	2.96182	0
1.996	2.96135	0
2.004	2.96088	0
2.012	2.96042	0
2.020	2.95997	0
2.028	2.95952	0
2.036	2.95908	0
2.044	2.95864	0
2.052	2.95821	0
2.060	2.95779	0
2.068	2.95737	0
2.076	2.95696	0
2.084	2.95655	0
2.092	2.95614	0
2.100	2.95575	0
2.108	2.95535	0
2.116	2.95497	0
2.124	2.95458	0
2.132	2.95420	0
2.140	2.95383	0
2.148	2.95346	0
2.156	2.95310	0
2.164	2.95273	0
2.172	2.95238	0
2.180	2.95203	0
2.188	2.95168	0
2.196	2.95134	0
2.204	2.95100	0
2.212	2.95066	0
2.220	2.95033	0
2.228	2.95000	0
2.236	2.94968	0
2.244	2.94936	0
2.252	2.94904	0
2.260	2.94873	0
2.268	2.94842	0
2.276	2.94811	0
2.284	2.94781	0
2.292	2.94751	0
2.300	2.94722	0
2.308	2.94692	0
2.316	2.94664	0
2.324	2.94635	0
2.332	2.94607	0
2.340	2.94579	0
2.348	2.94551	0
2.356	2.94524	0
2.364	2.94497	0
2.372	2.94470	0
2.380	2.94443	0
2.388	2.94417	0
2.396	2.94391	0
2.404	2.94366	0
2.412	2.94340	0
2.420	2.94315	0
2.428	2.94290	0
2.436	2.94266	0
2.444	2.94242	0
2.452	2.94218	0
2.460	2.94194	0
2.468	2.94170	0
2.476	2.94147	0
2.484	2.94124	0
2.492	2.94101	0
2.500	2.94078	0
2.508	2.94056	0
2.516	2.94034	0
2.524	2.94012	0
2.532	2.93990	0
2.540	2.93969	0
2.548	2.93947	0
2.556	2.93926	0
2.564	2.93905	0
2.572	2.93885	0
2.580	2.93864	0
2.588	2.93844	0
2.596	2.93824	0
2.604	2.93804	0
2.612	2.93784	0
2.620	2.93765	0
2.628	2.93746	0
2.636	2.93726	0
2.644	2.93708	0
2.652	2.93689	0
2.660	2.93670	0
2.668	2.93652	0
2.676	2.93634	0
2.684	2.93615	0
2.692	2.93598	0
2.700	2.93580	0
2.708	2.93562	0
2.716	2.93545	0
2.724	2.93528	0
2.732	2.93511	0
2.740	2.93494	0
2.748	2.93477	0
2.756	2.93460	0
2.764	2.93444	0
2.772	2.93428	0
2.780	2.93411	0
2.788	2.93395	0
2.796	2.93379	0
2.804	2.93364	0
2.812	2.93348	0
2.820	2.93333	0
2.828	2.93317	0
2.836	2.93302	0
2.844	2.93287	0
2.852	2.93272	0
2.860	2.93257	0
2.868	2.93243	0
2.876	2.93228	0
2.884	2.93214	0
2.892	2.93199	0
2.900	2.93185	0
2.908	2.93171	0
2.916	2.93157	0
2.924	2.93143	0
2.932	2.93130	0
2.940	2.93116	0
2.948	2.93103	0
2.956	2.93089	0
2.964	2.93076	0
2.972	2.93063	0
2.980	2.93050	0
2.988	2.93037	0
2.996	2.93024	0
3.004	2.93012	0
3.012	2.92999	0
3.020	2.92987	0
3.028	2.92974	0
3.036	2.92962	0
3.044	2.92950	0
3.052	2.92938	0
3.060	2.92926	0
3.068	2.92914	0
3.076	2.92902	0
3.084	2.92890	0
3.092	2.92879	0
3.100	2.92867	0
3.108	2.92856	0
3.116	2.92844	0
3.124	2.92833	0
3.132	2.92822	0
3.140	2.92811	0
3.148	2.92800	0
3.156	2.92789	0
3.164	2.92778	0
3.172	2.92768	0
3.180	2.92757	0
3.188	2.92746	0
3.196	2.92736	0
3.204	2.92726	0
3.212	2.92715	0
3.220	2.92705	0
3.228	2.92695	0
3.236	2.92685	0
3.244	2.92675	0
3.252	2.92665	0
3.260	2.92655	0
3.268	2.92645	0
3.276	2.92636	0
3.284	2.92626	0
3.292	2.92625	0
3.300	2.92625	0
