Material: organic / C4H10O - butanol / Wang-60C
Optical constants. C. C. Wang, J. Y. Tan, C. Y. Jing, L. H. Liu. Temperature-dependent optical constants of liquid isopropanol, n-butanol and n-decane, Appl. Opt. 57, 3303-3311 (2018) (Numerical data kindly provided by Chengchao Wang)
Comments: n-butanol, 60 Â°C.
Specs: {"n_absolute": true, "wavelength_vacuum": true, "temperature": "60.0 Â°C"}
wavelength (um)	n	k
1.660	1.41096	3.3010E-05
1.679	1.40534	4.2973E-05
1.699	1.39609	8.9808E-05
1.719	1.39204	1.1361E-04
1.740	1.38926	9.1805E-05
1.759	1.39048	8.4953E-05
1.778	1.38873	5.7641E-05
1.798	1.38571	4.8922E-05
1.818	1.38254	4.2106E-05
1.839	1.37927	3.3143E-05
1.860	1.37787	2.4168E-05
1.879	1.37676	2.2259E-05
1.898	1.37887	2.0355E-05
1.917	1.37828	2.5141E-05
1.938	1.37773	2.4397E-05
1.958	1.37866	2.5573E-05
1.979	1.37660	2.6842E-05
1.997	1.37584	3.3519E-05
2.019	1.37629	4.9694E-05
2.038	1.37661	7.3055E-05
2.058	1.37680	1.0813E-04
2.077	1.37511	1.3928E-04
2.097	1.37283	1.4690E-04
2.118	1.37230	1.2762E-04
2.139	1.37220	1.0676E-04
2.157	1.37292	9.3217E-05
2.179	1.37464	8.3453E-05
2.197	1.37409	8.3821E-05
2.220	1.37227	9.0705E-05
2.239	1.37105	1.2229E-04
2.258	1.37017	2.5439E-04
2.278	1.36932	5.2210E-04
2.298	1.37136	7.4233E-04
2.319	1.37143	6.6289E-04
2.340	1.37017	5.6469E-04
2.357	1.36910	5.1814E-04
2.378	1.36807	4.9429E-04
2.396	1.36770	5.1244E-04
2.418	1.36812	4.5755E-04
2.437	1.36813	4.8211E-04
2.460	1.36855	5.7547E-04
2.478	1.36752	5.0514E-04
2.498	1.36633	4.8911E-04
2.517	1.36657	4.1165E-04
2.537	1.36691	3.1244E-04
2.557	1.36616	2.9069E-04
2.577	1.36599	2.8343E-04
2.598	1.36570	2.9242E-04
2.619	1.36416	2.6326E-04
2.640	1.36238	2.3755E-04
2.656	1.36145	2.4680E-04
2.678	1.36031	2.5646E-04
2.695	1.35948	2.9546E-04
2.717	1.35959	3.7427E-04
2.735	1.35909	5.3490E-04
2.758	1.35634	9.7016E-04
2.776	1.35202	1.3800E-03
2.800	1.34751	2.6400E-03
2.818	1.34474	1.4640E-02
2.836	1.34139	1.7920E-02
2.855	1.34338	1.8550E-02
2.874	1.34260	2.7530E-02
2.900	1.34438	3.7870E-02
2.919	1.34722	4.7610E-02
2.939	1.35424	5.1150E-02
2.959	1.36459	5.0190E-02
2.980	1.37020	5.5060E-02
2.994	1.37470	5.6270E-02
3.014	1.38040	5.1790E-02
3.036	1.38697	5.0110E-02
3.057	1.39000	4.0520E-02
3.079	1.39102	3.0030E-02
3.094	1.39010	3.0780E-02
3.116	1.38774	2.9670E-02
3.139	1.38714	2.5020E-02
3.154	1.38702	2.0020E-02
3.177	1.38292	1.5010E-02
3.193	1.38139	1.3530E-02
3.216	1.37887	1.1700E-02
3.232	1.37619	1.0120E-02
3.257	1.36935	9.5700E-03
3.273	1.36556	1.0530E-02
3.298	1.36128	6.5600E-03
3.315	1.35325	8.0300E-03
3.332	1.34140	1.5750E-02
3.358	1.31871	3.8990E-02
3.376	1.33755	8.1380E-02
3.393	1.37058	8.7310E-02
3.411	1.39243	8.8290E-02
3.438	1.40803	5.6210E-02
3.457	1.40177	4.9920E-02
3.475	1.40717	6.5030E-02
3.494	1.42880	5.3110E-02
3.513	1.42778	3.1530E-02
3.532	1.41890	1.9830E-02
3.551	1.41113	1.3050E-02
3.571	1.40493	1.2040E-02
3.591	1.40350	8.5000E-03
3.611	1.39960	8.3100E-03
3.631	1.39737	7.0900E-03
3.651	1.39294	7.8500E-03
3.672	1.39449	7.1600E-03
3.693	1.39373	5.2900E-03
3.714	1.39470	4.5700E-03
3.736	1.39043	4.2600E-03
3.757	1.38790	3.9000E-03
3.779	1.39014	3.4500E-03
3.801	1.38868	3.2000E-03
3.824	1.38622	2.9300E-03
3.846	1.38620	2.7400E-03
3.869	1.38445	2.7600E-03
3.893	1.38370	2.7500E-03
3.916	1.38395	2.6100E-03
3.940	1.38471	2.4200E-03
3.964	1.38245	2.2300E-03
3.988	1.37995	2.0100E-03
4.013	1.38121	1.8200E-03
4.038	1.38340	1.7000E-03
4.063	1.38096	1.6000E-03
4.089	1.38119	1.5300E-03
4.115	1.38082	1.5300E-03
4.141	1.37930	1.5200E-03
4.168	1.38085	1.4300E-03
4.195	1.37786	1.2700E-03
4.222	1.37619	1.1800E-03
4.250	1.37824	1.1500E-03
4.278	1.37674	1.1600E-03
4.306	1.37730	1.1300E-03
4.335	1.37663	1.0200E-03
4.364	1.37836	9.4062E-04
4.394	1.37764	9.0667E-04
4.424	1.37834	8.9771E-04
4.454	1.37749	8.9243E-04
4.485	1.37689	8.8436E-04
4.516	1.37624	9.0287E-04
4.548	1.37532	9.3904E-04
4.580	1.37628	9.5700E-04
4.613	1.37576	9.4243E-04
4.646	1.37498	8.7376E-04
4.680	1.37519	8.4577E-04
4.714	1.37394	8.4760E-04
4.748	1.37248	9.3878E-04
4.783	1.37181	1.0600E-03
4.819	1.37268	1.1000E-03
4.855	1.37277	1.1400E-03
4.891	1.37238	1.3000E-03
4.929	1.37047	1.3600E-03
4.966	1.37033	1.1700E-03
5.005	1.37136	9.9163E-04
5.044	1.37210	1.0700E-03
5.083	1.37109	1.0600E-03
5.123	1.37165	1.0500E-03
5.164	1.36969	1.0400E-03
5.206	1.37071	1.1500E-03
5.248	1.37051	1.1100E-03
5.291	1.36802	1.0400E-03
5.334	1.36845	1.0800E-03
5.379	1.36659	1.1300E-03
5.424	1.36756	1.0900E-03
5.469	1.36915	1.0900E-03
5.516	1.36657	1.1600E-03
5.563	1.36582	1.2600E-03
5.611	1.36519	1.2600E-03
5.660	1.36659	1.2800E-03
5.710	1.36469	1.3900E-03
5.761	1.36304	1.5100E-03
5.813	1.36355	1.6300E-03
5.865	1.36482	1.7100E-03
5.919	1.36073	1.8100E-03
5.973	1.36010	1.9000E-03
6.029	1.36144	2.0400E-03
6.086	1.36150	2.1600E-03
6.143	1.36285	2.3300E-03
6.202	1.36141	2.5300E-03
6.262	1.35916	2.7600E-03
6.323	1.36066	3.0500E-03
6.385	1.35724	3.3700E-03
6.449	1.35354	3.8600E-03
6.514	1.35314	4.6500E-03
6.580	1.34701	6.3200E-03
6.647	1.34278	1.2580E-02
6.716	1.33616	1.8190E-02
6.787	1.33892	3.6090E-02
6.858	1.36057	4.6250E-02
6.932	1.36964	3.4850E-02
7.007	1.36786	3.2510E-02
7.083	1.37010	2.8730E-02
7.161	1.36414	2.8870E-02
7.241	1.36811	3.9870E-02
7.323	1.37878	2.9820E-02
7.407	1.37325	2.3340E-02
7.493	1.37748	2.1040E-02
7.580	1.37852	2.1610E-02
7.670	1.37563	1.7940E-02
7.762	1.37385	1.8490E-02
7.856	1.36982	1.4060E-02
7.952	1.36558	1.7580E-02
8.051	1.36506	1.5360E-02
8.152	1.36034	2.0040E-02
8.256	1.36791	1.6810E-02
8.363	1.36719	1.4800E-02
8.472	1.36282	1.0960E-02
8.584	1.35167	1.3710E-02
8.700	1.34494	1.1860E-02
8.818	1.33570	1.6810E-02
8.939	1.32787	3.1610E-02
9.065	1.33784	4.1290E-02
9.193	1.30680	5.2550E-02
9.325	1.34149	1.2043E-01
9.462	1.38067	9.0650E-02
9.602	1.39359	1.0708E-01
9.746	1.42708	8.4810E-02
9.895	1.42339	5.5940E-02
10.04	1.41069	3.9960E-02
10.20	1.40663	2.3990E-02
10.37	1.39554	3.0110E-02
10.53	1.41162	4.1780E-02
10.71	1.41267	1.6750E-02
10.89	1.39100	1.3170E-02
11.07	1.38929	1.7920E-02
11.27	1.38961	1.1130E-02
11.47	1.37831	1.3370E-02
11.67	1.37104	2.8870E-02
11.89	1.39496	2.7350E-02
12.11	1.38808	1.6920E-02
12.34	1.37868	2.2690E-02
12.58	1.38070	1.8000E-02
12.83	1.37673	1.6090E-02
13.09	1.36603	2.2770E-02
13.36	1.37098	3.7600E-02
13.64	1.37645	4.5460E-02
13.93	1.38267	3.6040E-02
14.24	1.37692	3.9560E-02
14.56	1.37555	4.0900E-02
14.89	1.39388	3.1630E-02
15.25	1.39160	4.8530E-02
15.61	1.39259	5.0830E-02
16.00	1.42035	3.2120E-02
16.40	1.43699	2.8750E-02
16.83	1.38635	2.3840E-02
17.28	1.40388	2.2610E-02
17.75	1.41917	6.8140E-02
18.25	1.40255	7.7620E-02
18.78	1.41977	6.7830E-02
