Material: organic / C4H10O - butanol / Wang-90C
Optical constants. C. C. Wang, J. Y. Tan, C. Y. Jing, L. H. Liu. Temperature-dependent optical constants of liquid isopropanol, n-butanol and n-decane, Appl. Opt. 57, 3303-3311 (2018) (Numerical data kindly provided by Chengchao Wang)
Comments: n-butanol, 90 Â°C.
Specs: {"n_absolute": true, "wavelength_vacuum": true, "temperature": "90.0 Â°C"}
wavelength (um)	n	k
1.660	1.40599	3.2290E-05
1.679	1.40726	4.2898E-05
1.699	1.39632	9.0268E-05
1.719	1.39300	1.1331E-04
1.740	1.38968	9.0651E-05
1.759	1.39024	8.4766E-05
1.778	1.38927	5.7660E-05
1.798	1.38611	4.9146E-05
1.818	1.38209	4.1449E-05
1.839	1.37794	3.2318E-05
1.860	1.37603	2.3704E-05
1.879	1.37654	2.1885E-05
1.898	1.38012	2.0390E-05
1.917	1.38058	2.4983E-05
1.938	1.37991	2.4397E-05
1.958	1.38016	2.5665E-05
1.979	1.37773	2.6420E-05
1.997	1.37653	3.3270E-05
2.019	1.37592	4.9320E-05
2.038	1.37557	7.2914E-05
2.058	1.37407	1.0725E-04
2.077	1.37158	1.3842E-04
2.097	1.36816	1.4546E-04
2.118	1.36713	1.2692E-04
2.139	1.36688	1.0547E-04
2.157	1.36779	9.2159E-05
2.179	1.37017	8.2239E-05
2.197	1.37145	8.2914E-05
2.220	1.37069	9.0489E-05
2.239	1.36951	1.2205E-04
2.258	1.36787	2.5365E-04
2.278	1.36586	5.2045E-04
2.298	1.36693	7.4102E-04
2.319	1.36682	6.6181E-04
2.340	1.36660	5.6365E-04
2.357	1.36563	5.1695E-04
2.378	1.36386	4.9346E-04
2.396	1.36261	5.1111E-04
2.418	1.36315	4.5587E-04
2.437	1.36335	4.8029E-04
2.460	1.36404	5.7475E-04
2.478	1.36341	5.0426E-04
2.498	1.36272	4.8766E-04
2.517	1.36235	4.1022E-04
2.537	1.36157	3.1144E-04
2.557	1.36064	2.8926E-04
2.577	1.36102	2.8157E-04
2.598	1.36038	2.9099E-04
2.619	1.35930	2.6224E-04
2.640	1.35786	2.3624E-04
2.656	1.35585	2.4552E-04
2.678	1.35454	2.5453E-04
2.695	1.35326	2.9349E-04
2.717	1.35331	3.7305E-04
2.735	1.35305	5.3303E-04
2.758	1.35176	9.6863E-04
2.776	1.34914	1.3800E-03
2.800	1.34416	2.6400E-03
2.818	1.34242	1.3120E-02
2.836	1.34082	1.7250E-02
2.855	1.34383	1.7780E-02
2.874	1.34180	2.4370E-02
2.900	1.34401	3.5210E-02
2.919	1.34730	4.5860E-02
2.939	1.35533	4.1380E-02
2.959	1.36347	4.1530E-02
2.980	1.36661	4.3400E-02
2.994	1.37143	4.2750E-02
3.014	1.37482	3.8380E-02
3.036	1.37959	3.2880E-02
3.057	1.37869	2.3200E-02
3.079	1.37820	1.6830E-02
3.094	1.37670	1.7170E-02
3.116	1.37349	1.9650E-02
3.139	1.37318	1.6160E-02
3.154	1.37237	1.3520E-02
3.177	1.36942	6.2400E-03
3.193	1.36884	7.8400E-03
3.216	1.36437	5.3000E-03
3.232	1.36285	5.4100E-03
3.257	1.35888	8.3200E-03
3.273	1.35515	9.0100E-03
3.298	1.35135	3.4000E-03
3.315	1.34381	8.6800E-03
3.332	1.33412	1.4070E-02
3.358	1.31437	3.7840E-02
3.376	1.32892	7.8860E-02
3.393	1.35795	8.4820E-02
3.411	1.38042	8.5630E-02
3.438	1.39413	5.3380E-02
3.457	1.38978	4.6910E-02
3.475	1.39537	5.8530E-02
3.494	1.41354	4.7730E-02
3.513	1.41250	2.9730E-02
3.532	1.40536	2.0260E-02
3.551	1.39806	1.3700E-02
3.571	1.39204	1.1300E-02
3.591	1.39184	6.3200E-03
3.611	1.38754	7.4600E-03
3.631	1.38475	7.5700E-03
3.651	1.38238	7.5000E-03
3.672	1.38320	7.1500E-03
3.693	1.38265	4.2200E-03
3.714	1.38327	4.0900E-03
3.736	1.37996	3.6000E-03
3.757	1.37875	3.3400E-03
3.779	1.37805	3.0400E-03
3.801	1.37662	2.7900E-03
3.824	1.37506	2.6000E-03
3.846	1.37480	2.4700E-03
3.869	1.37430	2.4200E-03
3.893	1.37299	2.3700E-03
3.916	1.37153	2.2900E-03
3.940	1.37247	2.1500E-03
3.964	1.37178	2.0000E-03
3.988	1.36911	1.8400E-03
4.013	1.37053	1.6700E-03
4.038	1.37112	1.5700E-03
4.063	1.37008	1.4800E-03
4.089	1.37068	1.4200E-03
4.115	1.36996	1.4100E-03
4.141	1.36873	1.4200E-03
4.168	1.36946	1.3500E-03
4.195	1.36668	1.1900E-03
4.222	1.36230	1.0900E-03
4.250	1.36440	1.0600E-03
4.278	1.36082	1.0700E-03
4.306	1.36423	1.0500E-03
4.335	1.36642	9.7186E-04
4.364	1.36815	9.0117E-04
4.394	1.36824	8.6731E-04
4.424	1.36749	8.5173E-04
4.454	1.36712	8.4377E-04
4.485	1.36672	8.3989E-04
4.516	1.36594	8.6074E-04
4.548	1.36383	8.9241E-04
4.580	1.36555	9.1097E-04
4.613	1.36629	9.0135E-04
4.646	1.36468	8.4043E-04
4.680	1.36465	8.1410E-04
4.714	1.36344	8.1153E-04
4.748	1.36228	8.8884E-04
4.783	1.36268	1.0000E-03
4.819	1.36258	1.0400E-03
4.855	1.36129	1.0900E-03
4.891	1.36262	1.2400E-03
4.929	1.35956	1.3000E-03
4.966	1.36042	1.1300E-03
5.005	1.36143	9.6720E-04
5.044	1.36277	1.0200E-03
5.083	1.36078	1.0200E-03
5.123	1.36067	9.9946E-04
5.164	1.35886	9.9858E-04
5.206	1.36013	1.0900E-03
5.248	1.35985	1.0500E-03
5.291	1.35775	9.8822E-04
5.334	1.35862	1.0200E-03
5.379	1.35721	1.0600E-03
5.424	1.35727	1.0300E-03
5.469	1.35953	1.0200E-03
5.516	1.35686	1.0900E-03
5.563	1.35621	1.1800E-03
5.611	1.35515	1.1800E-03
5.660	1.35619	1.2000E-03
5.710	1.35388	1.2900E-03
5.761	1.35248	1.4000E-03
5.813	1.35290	1.5000E-03
5.865	1.35513	1.5700E-03
5.919	1.35202	1.6500E-03
5.973	1.35028	1.7300E-03
6.029	1.35154	1.8700E-03
6.086	1.35042	1.9900E-03
6.143	1.35186	2.1200E-03
6.202	1.35046	2.3000E-03
6.262	1.34834	2.5000E-03
6.323	1.34995	2.7900E-03
6.385	1.34840	3.0900E-03
6.449	1.34316	3.5300E-03
6.514	1.34152	4.2000E-03
6.580	1.33801	5.0000E-03
6.647	1.33585	1.2900E-02
6.716	1.32966	1.8530E-02
6.787	1.33093	3.4110E-02
6.858	1.34978	4.1350E-02
6.932	1.35635	3.1590E-02
7.007	1.35431	3.2100E-02
7.083	1.35483	2.8680E-02
7.161	1.35340	2.9710E-02
7.241	1.35851	3.8060E-02
7.323	1.36467	2.8830E-02
7.407	1.36094	2.3000E-02
7.493	1.36341	2.1040E-02
7.580	1.36435	2.1840E-02
7.670	1.36179	1.9070E-02
7.762	1.36082	2.0390E-02
7.856	1.35862	1.4440E-02
7.952	1.35245	1.7950E-02
8.051	1.35385	1.4450E-02
8.152	1.34930	2.0370E-02
8.256	1.35921	1.4400E-02
8.363	1.35762	1.6080E-02
8.472	1.35107	9.5200E-03
8.584	1.34413	1.4380E-02
8.700	1.33644	1.4400E-02
8.818	1.32827	1.8260E-02
8.939	1.32262	2.9320E-02
9.065	1.32513	4.2400E-02
9.193	1.30620	5.0160E-02
9.325	1.33034	1.1133E-01
9.462	1.36254	8.6190E-02
9.602	1.37453	1.0008E-01
9.746	1.40792	8.8520E-02
9.895	1.41274	5.5990E-02
10.04	1.39954	3.6550E-02
10.20	1.39616	2.5100E-02
10.37	1.38497	2.7500E-02
10.53	1.39924	3.5910E-02
10.71	1.40031	1.4140E-02
10.89	1.38231	1.3930E-02
11.07	1.37871	1.3660E-02
11.27	1.38065	9.9600E-03
11.47	1.36698	9.2900E-03
11.67	1.36291	2.3260E-02
11.89	1.38332	2.2120E-02
12.11	1.37382	1.2590E-02
12.34	1.36379	1.5650E-02
12.58	1.36998	1.2310E-02
12.83	1.37067	1.1010E-02
13.09	1.35586	1.8820E-02
13.36	1.36310	2.8280E-02
13.64	1.36571	3.9920E-02
13.93	1.36996	2.6800E-02
14.24	1.35878	2.8780E-02
14.56	1.36850	3.3440E-02
14.89	1.37631	1.5080E-02
15.25	1.37700	4.1520E-02
15.61	1.38570	5.5490E-02
16.00	1.40611	4.5520E-02
16.40	1.41796	2.7940E-02
16.83	1.37472	2.8490E-02
17.28	1.35582	6.1300E-03
17.75	1.34547	5.9900E-02
18.25	1.36942	1.0976E-01
18.78	1.33482	7.0000E-02
