Material: organic / (C2H6OSi)n - polydimethylsiloxane / Querry-NIR
Optical constants. M. R. Querry. Optical constants of minerals and other materials from the millimeter to the ultraviolet, Contractor Report CRDEC-CR-88009 (1987)
Comments: SF-96 polydimethylsiloxane fluid
wavelength (um)	n	k
0.8190	1.400	.0000010
0.8390	1.400	.0000020
0.8590	1.400	.0000010
0.8790	1.400	.0000010
0.8990	1.399	.0000010
0.9190	1.399	.0000010
0.9390	1.399	.0000010
0.9590	1.399	.0000010
0.9790	1.399	.0000010
0.9990	1.399	.0000010
1.0190	1.399	.0000010
1.0390	1.399	.0000010
1.0590	1.399	.0000010
1.0790	1.398	.0000010
1.0990	1.398	.0000010
1.1190	1.398	.0000010
1.1390	1.398	.0000010
1.1590	1.398	.0000030
1.1790	1.398	.0000120
1.1990	1.398	.0000030
1.2190	1.398	.0000010
1.2390	1.398	.0000000
1.2590	1.398	.0000010
1.2790	1.397	.0000000
1.2990	1.397	.0000000
1.3190	1.397	.0000000
1.3390	1.397	.0000000
1.3590	1.397	.0000030
1.3790	1.397	.0000060
1.3990	1.397	.0000150
1.4190	1.397	.0000050
1.4390	1.397	.0000030
1.4590	1.397	.0000020
1.4790	1.396	.0000010
1.4990	1.396	.0000020
1.5190	1.396	.0000060
1.5390	1.396	.0000050
1.5590	1.396	.0000040
1.5790	1.396	.0000010
1.5990	1.396	.0000010
1.6190	1.396	.0000010
1.6390	1.396	.0000050
1.6590	1.396	.0000080
1.6790	1.395	.0000210
1.6990	1.395	.0000890
1.7190	1.395	.0000200
1.7390	1.395	.0000950
1.7590	1.395	.0000410
1.7790	1.395	.0000310
1.7990	1.395	.0000100
1.8190	1.395	.0000040
1.8390	1.395	.0000200
1.8590	1.395	.0000120
1.8790	1.394	.0000020
1.8990	1.394	.0000030
1.9190	1.394	.0000040
1.9390	1.394	.0000060
1.9590	1.394	.0000080
1.9790	1.394	.0000100
1.9990	1.394	.0000100
2.0190	1.394	.0000100
2.0390	1.394	.0000090
2.0590	1.393	.0000060
2.0790	1.393	.0000050
2.0990	1.393	.0000060
2.1190	1.393	.0000080
2.1390	1.393	.0000110
2.1590	1.393	.0000220
2.1790	1.393	.0000340
2.1990	1.392	.0000490
2.2190	1.392	.0000830
2.2390	1.392	.0001080
2.2590	1.392	.0001720
2.2790	1.392	.0003560
2.2990	1.392	.0006460
2.3190	1.392	.0001560
2.3390	1.392	.0001050
2.3590	1.391	.0002190
2.3790	1.392	.0003160
2.3990	1.391	.0002310
2.4190	1.391	.0001240
2.4390	1.391	.0001380
2.4590	1.391	.0002640
2.4790	1.391	.0002400
2.4990	1.391	.0006800
