Material: organic / (C2H6OSi)n - polydimethylsiloxane / Querry-IR
Optical constants. M. R. Querry. Optical constants of minerals and other materials from the millimeter to the ultraviolet, Contractor Report CRDEC-CR-88009 (1987)
Comments: SF-96 polydimethylsiloxane fluid
wavelength (um)	n	k
2.5000	1.386	0.000
2.5063	1.386	0.000
2.5126	1.386	0.000
2.5189	1.386	0.000
2.5253	1.386	0.000
2.5316	1.386	0.000
2.5381	1.385	0.000
2.5445	1.386	0.000
2.5510	1.386	0.000
2.5575	1.385	0.000
2.5641	1.385	0.000
2.5707	1.385	0.000
2.5773	1.385	0.000
2.5840	1.385	0.000
2.5907	1.385	0.000
2.5974	1.385	0.000
2.6042	1.385	0.000
2.6110	1.384	0.000
2.6178	1.384	0.000
2.6247	1.384	0.000
2.6316	1.384	0.000
2.6385	1.384	0.000
2.6455	1.384	0.000
2.6525	1.384	0.000
2.6596	1.384	0.000
2.6667	1.383	0.001
2.6738	1.383	0.001
2.6810	1.384	0.001
2.6882	1.384	0.001
2.6954	1.384	0.001
2.7027	1.384	0.001
2.7100	1.384	0.001
2.7174	1.384	0.001
2.7248	1.384	0.000
2.7322	1.384	0.001
2.7397	1.384	0.001
2.7473	1.385	0.000
2.7548	1.384	0.001
2.7624	1.384	0.001
2.7701	1.385	0.000
2.7778	1.384	0.000
2.7855	1.384	0.000
2.7933	1.384	0.000
2.8011	1.383	0.000
2.8090	1.384	0.000
2.8169	1.383	0.000
2.8249	1.384	0.000
2.8329	1.383	0.000
2.8409	1.382	0.000
2.8490	1.382	0.000
2.8571	1.383	0.000
2.8653	1.383	0.000
2.8736	1.383	0.000
2.8818	1.382	0.000
2.8902	1.383	0.000
2.8986	1.382	0.000
2.9070	1.382	0.000
2.9155	1.382	0.000
2.9240	1.382	0.000
2.9326	1.382	0.000
2.9412	1.382	0.000
2.9499	1.382	0.000
2.9586	1.382	0.000
2.9674	1.381	0.000
2.9762	1.381	0.000
2.9851	1.381	0.000
2.9940	1.381	0.000
3.0030	1.381	0.000
3.0120	1.381	0.000
3.0211	1.380	0.000
3.0303	1.380	0.000
3.0395	1.380	0.000
3.0488	1.380	0.000
3.0581	1.379	0.000
3.0675	1.379	0.000
3.0769	1.379	0.000
3.0864	1.379	0.000
3.0960	1.379	0.000
3.1056	1.378	0.000
3.1153	1.378	0.000
3.1250	1.378	0.000
3.1348	1.378	0.000
3.1447	1.378	0.000
3.1546	1.378	0.000
3.1646	1.377	0.000
3.1746	1.377	0.000
3.1847	1.376	0.000
3.1949	1.376	0.000
3.2051	1.376	0.001
3.2154	1.376	0.001
3.2258	1.376	0.001
3.2362	1.376	0.001
3.2468	1.375	0.001
3.2573	1.375	0.000
3.2680	1.374	0.001
3.2787	1.373	0.001
3.2895	1.373	0.001
3.3003	1.371	0.001
3.3113	1.370	0.001
3.3223	1.368	0.000
3.3333	1.365	0.003
3.3445	1.360	0.005
3.3557	1.350	0.015
3.3670	1.354	0.043
3.3784	1.394	0.050
3.3898	1.407	0.019
3.4014	1.398	0.007
3.4130	1.391	0.004
3.4247	1.387	0.004
3.4364	1.386	0.006
3.4483	1.388	0.006
3.4602	1.388	0.004
3.4722	1.386	0.002
3.4843	1.385	0.001
3.4965	1.384	0.000
3.5088	1.383	0.001
3.5211	1.383	0.001
3.5336	1.383	0.001
3.5461	1.382	0.001
3.5587	1.382	0.001
3.5714	1.381	0.001
3.5842	1.382	0.001
3.5971	1.381	0.000
3.6101	1.381	0.000
3.6232	1.380	0.000
3.6364	1.380	0.000
3.6496	1.379	0.000
3.6630	1.379	0.000
3.6765	1.379	0.000
3.6900	1.379	0.000
3.7037	1.378	0.000
3.7175	1.378	0.000
3.7313	1.378	0.000
3.7453	1.378	0.000
3.7594	1.378	0.000
3.7736	1.377	0.000
3.7879	1.377	0.000
3.8023	1.376	0.000
3.8168	1.376	0.000
3.8314	1.376	0.000
3.8462	1.376	0.000
3.8610	1.375	0.000
3.8760	1.375	0.000
3.8911	1.375	0.000
3.9063	1.375	0.000
3.9216	1.375	0.000
3.9370	1.375	0.000
3.9526	1.375	0.000
3.9683	1.374	0.000
3.9841	1.374	0.000
4.0000	1.374	0.000
4.0161	1.374	0.000
4.0323	1.373	0.000
4.0486	1.373	0.000
4.0650	1.373	0.000
4.0816	1.372	0.000
4.0984	1.372	0.000
4.1152	1.372	0.000
4.1322	1.372	0.000
4.1494	1.372	0.000
4.1667	1.371	0.000
4.1841	1.370	0.000
4.2017	1.370	0.000
4.2194	1.370	0.000
4.2373	1.370	0.000
4.2553	1.369	0.000
4.2735	1.368	0.000
4.2918	1.368	0.000
4.3103	1.368	0.000
4.3290	1.368	0.000
4.3478	1.367	0.000
4.3668	1.367	0.000
4.3764	1.367	0.000
4.4053	1.367	0.000
4.4248	1.366	0.000
4.4444	1.367	0.000
4.4643	1.366	0.001
4.4843	1.366	0.001
4.5045	1.365	0.001
4.5249	1.365	0.001
4.5455	1.365	0.001
4.5662	1.365	0.001
4.5872	1.364	0.001
4.6083	1.364	0.001
4.6296	1.364	0.001
4.6512	1.364	0.001
4.6729	1.363	0.001
4.6948	1.363	0.001
4.7170	1.363	0.001
4.7393	1.362	0.002
4.7619	1.362	0.001
4.7847	1.361	0.002
4.8077	1.361	0.002
4.8309	1.360	0.002
4.8544	1.360	0.002
4.8780	1.360	0.002
4.9020	1.360	0.002
4.9261	1.359	0.002
4.9505	1.358	0.002
4.9751	1.358	0.003
5.0000	1.358	0.004
5.0251	1.358	0.004
5.0505	1.358	0.004
5.0761	1.358	0.004
5.1020	1.357	0.004
5.1282	1.357	0.004
5.1546	1.358	0.004
5.1813	1.357	0.004
5.2083	1.357	0.003
5.2356	1.356	0.003
5.2632	1.355	0.003
5.2910	1.354	0.003
5.3191	1.354	0.003
5.3476	1.354	0.003
5.3763	1.354	0.002
5.4201	1.352	0.002
5.4348	1.351	0.002
5.4645	1.350	0.003
5.4945	1.349	0.003
5.5249	1.349	0.004
5.5556	1.349	0.004
5.5866	1.348	0.004
5.6180	1.348	0.004
5.6497	1.347	0.004
5.6818	1.346	0.004
5.7143	1.345	0.004
5.7471	1.344	0.005
5.7803	1.344	0.005
5.8140	1.343	0.005
5.8480	1.342	0.005
5.882	1.342	0.005
5.9172	1.341	0.006
5.9524	1.340	0.005
5.9880	1.339	0.006
6.0241	1.338	0.006
6.0606	1.337	0.006
6.0976	1.336	0.006
6.1350	1.335	0.006
6.1728	1.334	0.007
6.2112	1.333	0.007
6.2500	1.332	0.007
6.2893	1.331	0.007
6.3291	1.329	0.008
6.3694	1.328	0.007
6.4103	1.328	0.008
6.4516	1.326	0.006
6.4935	1.324	0.008
6.5359	1.322	0.008
6.5789	1.322	0.008
6.6225	1.318	0.007
6.6667	1.316	0.007
6.7114	1.315	0.008
6.7568	1.311	0.008
6.8027	1.309	0.008
6.8493	1.304	0.011
6.8966	1.303	0.014
6.9444	1.302	0.014
6.9930	1.297	0.014
7.0423	1.292	0.022
7.0922	1.299	0.026
7.1429	1.302	0.023
7.1942	1.302	0.015
7.2464	1.293	0.012
7.2993	1.287	0.012
7.3529	1.281	0.012
7.4074	1.275	0.012
7.4627	1.267	0.012
7.5188	1.258	0.013
7.5758	1.247	0.015
7.6336	1.232	0.016
7.6923	1.212	0.020
7.7519	1.183	0.030
7.8225	1.125	0.051
7.8740	1.009	0.232
7.9365	1.443	0.450
8.0000	1.474	0.070
8.0645	1.367	0.020
8.1301	1.319	0.014
8.1967	1.289	0.013
8.2645	1.263	0.013
8.3333	1.239	0.016
8.4034	1.217	0.019
8.4746	1.191	0.026
8.5470	1.163	0.037
8.6207	1.133	0.048
8.6957	1.095	0.067
8.7719	1.048	0.098
8.8496	0.991	0.154
8.9286	0.938	0.262
9.0090	0.956	0.428
9.0909	1.092	0.561
9.1743	1.261	0.564
9.2593	1.346	0.496
9.3458	1.366	0.448
9.4340	1.366	0.438
9.5238	1.372	0.462
9.6154	1.408	0.514
9.7087	1.504	0.580
9.8039	1.708	0.582
9.9010	1.877	0.363
10.0000	1.807	0.154
10.1010	1.710	0.077
10.2041	1.639	0.045
10.3093	1.587	0.030
10.4167	1.546	0.024
10.5263	1.512	0.019
10.6383	1.481	0.017
10.7527	1.452	0.017
10.8696	1.425	0.020
10.9890	1.396	0.025
11.1111	1.366	0.034
11.2360	1.333	0.053
11.3636	1.309	0.089
11.4943	1.307	0.118
11.6279	1.305	0.121
11.7647	1.258	0.123
11.9048	1.196	0.156
12.0482	1.075	0.258
12.1951	1.078	0.532
12.3457	1.241	0.790
12.5000	1.744	0.930
12.6582	2.095	0.475
12.8205	1.951	0.146
12.9870	1.799	0.060
13.1579	1.710	0.044
13.3333	1.666	0.038
13.5135	1.629	0.030
13.6986	1.596	0.027
13.8889	1.564	0.032
14.0845	1.540	0.058
14.2857	1.553	0.073
14.4928	1.558	0.072
14.7059	1.565	0.063
14.9254	1.558	0.057
15.1515	1.572	0.050
15.3846	1.554	0.025
15.6250	1.538	0.025
15.8730	1.535	0.026
16.1290	1.527	0.023
16.3934	1.520	0.022
16.6667	1.514	0.020
16.9492	1.508	0.019
17.2414	1.501	0.018
17.5439	1.495	0.019
17.8571	1.489	0.019
18.1818	1.485	0.021
18.5185	1.480	0.022
18.8679	1.476	0.023
19.2308	1.471	0.025
19.6078	1.468	0.026
20.0000	1.465	0.028
20.4082	1.464	0.028
20.8333	1.460	0.023
21.2766	1.450	0.020
21.7391	1.437	0.019
22.2222	1.423	0.019
22.7273	1.400	0.024
23.2558	1.370	0.034
23.8095	1.323	0.073
24.3902	1.311	0.169
25.0000	1.379	0.257
25.6410	1.485	0.273
26.3158	1.567	0.231
27.0270	1.597	0.164
27.7778	1.590	0.116
28.5714	1.576	0.091
29.4118	1.563	0.082
30.3030	1.555	0.069
31.2500	1.546	0.065
32.2581	1.540	0.063
33.3333	1.536	0.066
34.4828	1.536	0.069
35.7143	1.544	0.071
37.0370	1.551	0.063
38.4615	1.554	0.056
40.0000	1.555	0.046
41.6667	1.551	0.035
43.4783	1.542	0.030
45.4545	1.535	0.028
47.6190	1.532	0.032
50.0000	1.529	0.033
52.6316	1.530	0.035
55.5556	1.533	0.034
