Material: inorganic / C / El-Sayed
Optical constants. M. A. El-Sayed, G. A. Ermolaev, K. V. Voronin, R. I. Romanov, G. I. Tselikov, D. I. Yakubovsky, N. V. Doroshina, A. B. Nemtsov, V. R. Solovey, A. A. Voronov, S. M. Novikov, A. A. Vyshnevyy, A. M. Markeev, A. V. Arsenin, V. S. Volkov. Optical constants of chemical vapor deposited graphene for photonic applications, Nanomaterials, 11, 1230 (2021) (Numerical data kindly provided by Georgy Ermolaev)
Comments: Broadband optical constants of CVD graphene in the spectral range 240â€“1000 nm.
wavelength (um)	n	k
0.240	1.48050	2.34840
0.242	1.54042	2.37998
0.244	1.59149	2.41337
0.246	1.67234	2.44229
0.248	1.75062	2.46695
0.250	1.82636	2.48678
0.252	1.89956	2.50371
0.254	1.97023	2.51481
0.256	2.03838	2.52146
0.258	2.10402	2.52303
0.260	2.16716	2.51810
0.262	2.22782	2.50988
0.264	2.28600	2.49079
0.266	2.34171	2.46072
0.268	2.39496	2.42378
0.270	2.44577	2.38668
0.272	2.49414	2.35021
0.274	2.54008	2.31375
0.276	2.63922	2.27865
0.278	2.68657	2.24063
0.280	2.72752	2.19148
0.282	2.76308	2.13201
0.284	2.79479	2.07353
0.286	2.82386	2.02117
0.288	2.84910	1.97336
0.290	2.87060	1.93066
0.292	2.88850	1.89138
0.294	2.90301	1.85621
0.296	2.91438	1.82364
0.298	2.92288	1.79368
0.300	2.92881	1.76600
0.302	2.93247	1.73978
0.304	2.93416	1.71540
0.306	2.93416	1.69218
0.308	2.93274	1.67018
0.310	2.93014	1.64938
0.312	2.92657	1.62934
0.314	2.92224	1.61040
0.316	2.91730	1.59221
0.318	2.91190	1.57484
0.320	2.90617	1.55835
0.322	2.90021	1.54242
0.324	2.89410	1.52736
0.326	2.88791	1.51292
0.328	2.88170	1.49914
0.330	2.87551	1.48612
0.332	2.86934	1.47356
0.334	2.86322	1.46175
0.336	2.85715	1.45048
0.338	2.85111	1.43977
0.340	2.84511	1.42972
0.342	2.83915	1.42007
0.344	2.83323	1.41107
0.346	2.82736	1.40252
0.348	2.82157	1.39447
0.350	2.81587	1.38696
0.352	2.81030	1.37980
0.354	2.80487	1.37319
0.356	2.79961	1.36696
0.358	2.79454	1.36115
0.360	2.78968	1.35579
0.362	2.78503	1.35073
0.364	2.78061	1.34612
0.366	2.77644	1.34183
0.368	2.77251	1.33789
0.370	2.76883	1.33433
0.372	2.76540	1.33101
0.374	2.76221	1.32806
0.376	2.75925	1.32538
0.378	2.75648	1.32299
0.380	2.75388	1.32090
0.382	2.75144	1.31901
0.384	2.74912	1.31744
0.386	2.74690	1.31607
0.388	2.74477	1.31494
0.390	2.74273	1.31406
0.392	2.74078	1.31335
0.394	2.73891	1.31289
0.396	2.73713	1.31260
0.398	2.73544	1.31250
0.400	2.73384	1.31261
0.402	2.73233	1.31285
0.404	2.73090	1.31329
0.406	2.72956	1.31388
0.408	2.72829	1.31462
0.410	2.72710	1.31552
0.412	2.72598	1.31653
0.414	2.72493	1.31771
0.416	2.72395	1.31900
0.418	2.72304	1.32041
0.420	2.72219	1.32196
0.422	2.72140	1.32359
0.424	2.72067	1.32536
0.426	2.72000	1.32721
0.428	2.71938	1.32917
0.430	2.71882	1.33123
0.432	2.71831	1.33337
0.434	2.71785	1.33560
0.436	2.71744	1.33791
0.438	2.71708	1.34030
0.440	2.71676	1.34277
0.442	2.71649	1.34530
0.444	2.71626	1.34790
0.446	2.71607	1.35057
0.448	2.71592	1.35331
0.450	2.71582	1.35610
0.452	2.71575	1.35900
0.454	2.71571	1.36168
0.456	2.71572	1.36405
0.458	2.71576	1.36625
0.460	2.71583	1.36843
0.462	2.71593	1.37063
0.464	2.71607	1.37283
0.466	2.71624	1.37503
0.468	2.71644	1.37724
0.470	2.71667	1.37944
0.472	2.71693	1.38164
0.474	2.71722	1.38384
0.476	2.71753	1.38604
0.478	2.71787	1.38825
0.480	2.71824	1.39045
0.482	2.71863	1.39265
0.484	2.71904	1.39485
0.486	2.71948	1.39705
0.488	2.71995	1.39926
0.490	2.72043	1.40146
0.492	2.72094	1.40366
0.494	2.72147	1.40586
0.496	2.72202	1.40806
0.498	2.72259	1.41027
0.500	2.72318	1.41247
0.502	2.72379	1.41467
0.504	2.72442	1.41687
0.506	2.72507	1.41907
0.508	2.72574	1.42128
0.510	2.72643	1.42348
0.512	2.72713	1.42569
0.514	2.72785	1.42789
0.516	2.72858	1.43009
0.518	2.72934	1.43229
0.520	2.73010	1.43449
0.522	2.73089	1.43670
0.524	2.73169	1.43890
0.526	2.73250	1.44110
0.528	2.73333	1.44330
0.530	2.73417	1.44550
0.532	2.73503	1.44771
0.534	2.73590	1.44991
0.536	2.73678	1.45211
0.538	2.73768	1.45431
0.540	2.73858	1.45651
0.542	2.73951	1.45872
0.544	2.74044	1.46092
0.546	2.74139	1.46312
0.548	2.74235	1.46532
0.550	2.74332	1.46752
0.552	2.74430	1.46973
0.554	2.74529	1.47193
0.556	2.74630	1.47413
0.558	2.74731	1.47633
0.560	2.74834	1.47853
0.562	2.74937	1.48074
0.564	2.75042	1.48294
0.566	2.75148	1.48514
0.568	2.75254	1.48735
0.570	2.75362	1.48955
0.572	2.75470	1.49175
0.574	2.75580	1.49395
0.576	2.75690	1.49615
0.578	2.75801	1.49836
0.580	2.75913	1.50056
0.582	2.76026	1.50276
0.584	2.76140	1.50496
0.586	2.76255	1.50716
0.588	2.76370	1.50937
0.590	2.76486	1.51157
0.592	2.76603	1.51377
0.594	2.76721	1.51597
0.596	2.76840	1.51817
0.598	2.76959	1.52038
0.600	2.77079	1.52258
0.602	2.77200	1.52478
0.604	2.77322	1.52698
0.606	2.77444	1.52918
0.608	2.77567	1.53139
0.610	2.77690	1.53359
0.612	2.77815	1.53579
0.614	2.77940	1.53799
0.616	2.78065	1.54019
0.618	2.78192	1.54240
0.620	2.78319	1.54460
0.622	2.78446	1.54681
0.624	2.78574	1.54901
0.626	2.78703	1.55121
0.628	2.78832	1.55341
0.630	2.78962	1.55561
0.632	2.79093	1.55782
0.634	2.79224	1.56002
0.636	2.79355	1.56222
0.638	2.79487	1.56442
0.640	2.79620	1.56662
0.642	2.79753	1.56883
0.644	2.79887	1.57103
0.646	2.80021	1.57323
0.648	2.80156	1.57543
0.650	2.80291	1.57763
0.652	2.80427	1.57984
0.654	2.80563	1.58204
0.656	2.80700	1.58424
0.658	2.80837	1.58644
0.660	2.80975	1.58864
0.662	2.81113	1.59085
0.664	2.81252	1.59305
0.666	2.81391	1.59525
0.668	2.81530	1.59745
0.670	2.81670	1.59965
0.672	2.81810	1.60186
0.674	2.81951	1.60406
0.676	2.82092	1.60626
0.678	2.82234	1.60847
0.680	2.82376	1.61067
0.682	2.82518	1.61287
0.684	2.82661	1.61507
0.686	2.82804	1.61727
0.688	2.82948	1.61948
0.690	2.83092	1.62168
0.692	2.83236	1.62388
0.694	2.83381	1.62608
0.696	2.83526	1.62828
0.698	2.83671	1.63049
0.700	2.83817	1.63269
0.702	2.83963	1.63489
0.704	2.84110	1.63709
0.706	2.84257	1.63929
0.708	2.84404	1.64150
0.710	2.84551	1.64370
0.712	2.84699	1.64590
0.714	2.84848	1.64810
0.716	2.84996	1.65030
0.718	2.85145	1.65251
0.720	2.85294	1.65471
0.722	2.85443	1.65691
0.724	2.85593	1.65911
0.726	2.85743	1.66131
0.728	2.85893	1.66352
0.730	2.86044	1.66572
0.732	2.86195	1.66793
0.734	2.86346	1.67013
0.736	2.86497	1.67233
0.738	2.86649	1.67453
0.740	2.86801	1.67673
0.742	2.86954	1.67894
0.744	2.87106	1.68114
0.746	2.87259	1.68334
0.748	2.87412	1.68554
0.750	2.87566	1.68774
0.752	2.87719	1.68995
0.754	2.87873	1.69215
0.756	2.88027	1.69435
0.758	2.88181	1.69655
0.760	2.88336	1.69875
0.762	2.88491	1.70096
0.764	2.88646	1.70316
0.766	2.88801	1.70536
0.768	2.88957	1.70756
0.770	2.89113	1.70976
0.772	2.89269	1.71197
0.774	2.89425	1.71417
0.776	2.89582	1.71637
0.778	2.89738	1.71858
0.780	2.89895	1.72078
0.782	2.90052	1.72298
0.784	2.90210	1.72518
0.786	2.90367	1.72738
0.788	2.90525	1.72959
0.790	2.90683	1.73179
0.792	2.90841	1.73399
0.794	2.90999	1.73619
0.796	2.91158	1.73839
0.798	2.91316	1.74060
0.800	2.91475	1.74280
0.802	2.91634	1.74500
0.804	2.91793	1.74720
0.806	2.91953	1.74940
0.808	2.92112	1.75161
0.810	2.92272	1.75381
0.812	2.92432	1.75601
0.814	2.92592	1.75821
0.816	2.92753	1.76041
0.818	2.92913	1.76262
0.820	2.93074	1.76482
0.822	2.93235	1.76702
0.824	2.93396	1.76922
0.826	2.93557	1.77142
0.828	2.93718	1.77363
0.830	2.93880	1.77583
0.832	2.94041	1.77804
0.834	2.94203	1.78024
0.836	2.94365	1.78244
0.838	2.94527	1.78464
0.840	2.94689	1.78684
0.842	2.94852	1.78905
0.844	2.95014	1.79125
0.846	2.95177	1.79345
0.848	2.95340	1.79565
0.850	2.95503	1.79785
0.852	2.95666	1.80006
0.854	2.95829	1.80226
0.856	2.95992	1.80446
0.858	2.96156	1.80666
0.860	2.96319	1.80886
0.862	2.96483	1.81107
0.864	2.96647	1.81327
0.866	2.96811	1.81547
0.868	2.96976	1.81767
0.870	2.97140	1.81987
0.872	2.97304	1.82208
0.874	2.97469	1.82428
0.876	2.97633	1.82648
0.878	2.97798	1.82868
0.880	2.97963	1.83088
0.882	2.98128	1.83309
0.884	2.98294	1.83529
0.886	2.98459	1.83749
0.888	2.98624	1.83970
0.890	2.98790	1.84190
0.892	2.98955	1.84410
0.894	2.99121	1.84630
0.896	2.99286	1.84850
0.898	2.99452	1.85071
0.900	2.99618	1.85291
0.902	2.99784	1.85511
0.904	2.99950	1.85731
0.906	3.00117	1.85951
0.908	3.00283	1.86172
0.910	3.00449	1.86392
0.912	3.00616	1.86612
0.914	3.00783	1.86832
0.916	3.00949	1.87052
0.918	3.01116	1.87273
0.920	3.01283	1.87493
0.922	3.01450	1.87713
0.924	3.01618	1.87933
0.926	3.01785	1.88153
0.928	3.01952	1.88374
0.930	3.02119	1.88594
0.932	3.02287	1.88814
0.934	3.02454	1.89034
0.936	3.02622	1.89254
0.938	3.02790	1.89475
0.940	3.02957	1.89695
0.942	3.03125	1.89916
0.944	3.03293	1.90136
0.946	3.03461	1.90356
0.948	3.03629	1.90576
0.950	3.03797	1.90796
0.952	3.03966	1.91017
0.954	3.04134	1.91237
0.956	3.04303	1.91457
0.958	3.04471	1.91677
0.960	3.04639	1.91897
0.962	3.04808	1.92118
0.964	3.04977	1.92338
0.966	3.05145	1.92558
0.968	3.05314	1.92778
0.970	3.05483	1.92999
0.972	3.05652	1.93219
0.974	3.05822	1.93440
0.976	3.05991	1.93661
0.978	3.06160	1.93882
0.980	3.06330	1.94103
0.982	3.06499	1.94324
0.984	3.06669	1.94545
0.986	3.06838	1.94766
0.988	3.07007	1.94987
0.990	3.07177	1.95208
0.992	3.07346	1.95429
0.994	3.07515	1.95650
0.996	3.07685	1.95871
0.998	3.07854	1.96092
1.000	3.08024	1.96092
