Material: inorganic / C / Song-cHOPG-e
Optical constants. B. Song, H. Gu, S. Zhu, H. Jiang, X. Chen, C. Zhang, S. Liu. Broadband optical properties of graphene and HOPG investigated by spectroscopic Mueller matrix ellipsometry, Appl. Surf. Sci 439, 1079-1087 (2018) (Numerical data kindly provided by Baokun Song)
Comments: Highly oriented pyrolytic graphite (HOPG). Bulk. c-plane (c-HOPG). Extraordinary ray (e).
Specs: {"n_absolute": true, "wavelength_vacuum": true}
wavelength (um)	n
0.1930	2.077442
0.1960	2.041333
0.1990	2.007780
0.2020	1.976564
0.2050	1.947490
0.2080	1.920380
0.2110	1.895074
0.2140	1.871426
0.2170	1.849305
0.2200	1.828592
0.2230	1.809178
0.2260	1.790964
0.2290	1.773860
0.2320	1.757785
0.2350	1.742662
0.2380	1.728423
0.2410	1.715006
0.2440	1.702352
0.2470	1.690409
0.2500	1.679128
0.2530	1.668464
0.2560	1.658376
0.2590	1.648825
0.2620	1.639778
0.2650	1.631200
0.2680	1.623064
0.2710	1.615339
0.2740	1.608002
0.2770	1.601028
0.2800	1.594395
0.2830	1.588083
0.2860	1.582072
0.2890	1.576345
0.2920	1.570885
0.2950	1.565677
0.2980	1.560707
0.3010	1.555961
0.3040	1.551426
0.3070	1.547091
0.3100	1.542946
0.3130	1.538979
0.3160	1.535182
0.3190	1.531545
0.3220	1.528059
0.3250	1.524718
0.3280	1.521514
0.3310	1.518439
0.3340	1.515487
0.3370	1.512653
0.3400	1.509929
0.3430	1.507312
0.3460	1.504795
0.3490	1.502374
0.3520	1.500044
0.3550	1.497801
0.3580	1.495641
0.3610	1.493560
0.3640	1.491555
0.3670	1.489621
0.3700	1.487756
0.3730	1.485958
0.3760	1.484221
0.3790	1.482545
0.3820	1.480926
0.3850	1.479362
0.3880	1.477851
0.3910	1.476390
0.3940	1.474978
0.3970	1.473611
0.4000	1.472289
0.4030	1.471009
0.4060	1.469771
0.4090	1.468571
0.4120	1.467409
0.4150	1.466283
0.4180	1.465191
0.4210	1.464133
0.4240	1.463107
0.4270	1.462112
0.4300	1.461146
0.4330	1.460209
0.4360	1.459299
0.4390	1.458416
0.4420	1.457558
0.4450	1.456725
0.4480	1.455915
0.4510	1.455128
0.4540	1.454363
0.4570	1.453619
0.4600	1.452895
0.4630	1.452191
0.4660	1.451506
0.4690	1.450840
0.4720	1.450191
0.4750	1.449559
0.4780	1.448944
0.4810	1.448345
0.4840	1.447761
0.4870	1.447192
0.4900	1.446638
0.4930	1.446097
0.4960	1.445570
0.4990	1.445056
0.5020	1.444555
0.5050	1.444066
0.5080	1.443589
0.5110	1.443124
0.5140	1.442669
0.5170	1.442226
0.5200	1.441793
0.5230	1.441370
0.5260	1.440957
0.5290	1.440553
0.5320	1.440159
0.5350	1.439774
0.5380	1.439397
0.5410	1.439029
0.5440	1.438669
0.5470	1.438317
0.5500	1.437973
0.5530	1.437636
0.5560	1.437307
0.5590	1.436985
0.5620	1.436669
0.5650	1.436361
0.5680	1.436059
0.5710	1.435763
0.5740	1.435473
0.5770	1.435190
0.5800	1.434912
0.5830	1.434640
0.5860	1.434374
0.5890	1.434112
0.5920	1.433857
0.5950	1.433606
0.5980	1.433360
0.6010	1.433119
0.6040	1.432883
0.6070	1.432652
0.6100	1.432424
0.6130	1.432202
0.6160	1.431983
0.6190	1.431769
0.6220	1.431559
0.6250	1.431352
0.6280	1.431150
0.6310	1.430951
0.6340	1.430756
0.6370	1.430565
0.6400	1.430377
0.6430	1.430192
0.6460	1.430011
0.6490	1.429833
0.6520	1.429658
0.6550	1.429487
0.6580	1.429318
0.6610	1.429152
0.6640	1.428989
0.6670	1.428829
0.6700	1.428672
0.6730	1.428518
0.6760	1.428366
0.6790	1.428216
0.6820	1.428069
0.6850	1.427925
0.6880	1.427783
0.6910	1.427644
0.6940	1.427506
0.6970	1.427371
0.7000	1.427238
0.7030	1.427108
0.7060	1.426979
0.7090	1.426852
0.7120	1.426728
0.7150	1.426605
0.7180	1.426485
0.7210	1.426366
0.7240	1.426249
0.7270	1.426134
0.7300	1.426021
0.7330	1.425909
0.7360	1.425800
0.7390	1.425691
0.7420	1.425585
0.7450	1.425480
0.7480	1.425377
0.7510	1.425275
0.7540	1.425175
0.7570	1.425076
0.7600	1.424979
0.7630	1.424883
0.7660	1.424788
0.7690	1.424695
0.7720	1.424603
0.7750	1.424513
0.7780	1.424424
0.7810	1.424336
0.7840	1.424249
0.7870	1.424164
0.7900	1.424080
0.7930	1.423996
0.7960	1.423915
0.7990	1.423834
0.8020	1.423754
0.8050	1.423676
0.8080	1.423598
0.8110	1.423522
0.8140	1.423446
0.8170	1.423372
0.8200	1.423298
0.8230	1.423226
0.8260	1.423155
0.8290	1.423084
0.8320	1.423014
0.8350	1.422946
0.8380	1.422878
0.8410	1.422811
0.8440	1.422745
0.8470	1.422680
0.8500	1.422616
0.8530	1.422552
0.8560	1.422489
0.8590	1.422427
0.8620	1.422366
0.8650	1.422306
0.8680	1.422246
0.8710	1.422187
0.8740	1.422129
0.8770	1.422072
0.8800	1.422015
0.8830	1.421959
0.8860	1.421903
0.8890	1.421849
0.8920	1.421795
0.8950	1.421741
0.8980	1.421689
0.9010	1.421637
0.9040	1.421585
0.9070	1.421534
0.9100	1.421484
0.9130	1.421434
0.9160	1.421385
0.9190	1.421337
0.9220	1.421288
0.9250	1.421241
0.9280	1.421194
0.9310	1.421148
0.9340	1.421102
0.9370	1.421057
0.9400	1.421012
0.9430	1.420968
0.9460	1.420924
0.9490	1.420881
0.9520	1.420838
0.9550	1.420795
0.9580	1.420754
0.9610	1.420712
0.9640	1.420671
0.9670	1.420631
0.9700	1.420591
0.9730	1.420551
0.9760	1.420512
0.9790	1.420473
0.9820	1.420435
0.9850	1.420397
0.9880	1.420359
0.9910	1.420322
0.9940	1.420285
0.9970	1.420249
1.0000	1.420213
1.0075	1.420125
1.0150	1.420039
1.0225	1.419955
1.0300	1.419873
1.0375	1.419793
1.0450	1.419716
1.0525	1.419640
1.0600	1.419566
1.0675	1.419494
1.0750	1.419423
1.0825	1.419354
1.0900	1.419287
1.0975	1.419222
1.1050	1.419158
1.1125	1.419095
1.1200	1.419034
1.1275	1.418974
1.1350	1.418916
1.1425	1.418859
1.1500	1.418803
1.1575	1.418748
1.1650	1.418695
1.1725	1.418643
1.1800	1.418591
1.1875	1.418541
1.1950	1.418492
1.2025	1.418445
1.2100	1.418398
1.2175	1.418352
1.2250	1.418306
1.2325	1.418262
1.2400	1.418219
1.2475	1.418177
1.2550	1.418135
1.2625	1.418095
1.2700	1.418055
1.2775	1.418016
1.2850	1.417977
1.2925	1.417940
1.3000	1.417903
1.3075	1.417866
1.3150	1.417831
1.3225	1.417796
1.3300	1.417762
1.3375	1.417728
1.3450	1.417696
1.3525	1.417663
1.3600	1.417631
1.3675	1.417600
1.3750	1.417570
1.3825	1.417540
1.3900	1.417510
1.3975	1.417481
1.4050	1.417453
1.4125	1.417425
1.4200	1.417397
1.4275	1.417370
1.4350	1.417343
1.4425	1.417317
1.4500	1.417292
1.4575	1.417266
1.4650	1.417242
1.4725	1.417217
1.4800	1.417193
1.4875	1.417169
1.4950	1.417146
1.5025	1.417123
1.5100	1.417101
1.5175	1.417079
1.5250	1.417057
1.5325	1.417036
1.5400	1.417014
1.5475	1.416994
1.5550	1.416973
1.5625	1.416953
1.5700	1.416933
1.5775	1.416914
1.5850	1.416895
1.5925	1.416876
1.6000	1.416857
1.6075	1.416839
1.6150	1.416821
1.6225	1.416803
1.6300	1.416785
1.6375	1.416768
1.6450	1.416751
1.6525	1.416734
1.6600	1.416718
1.6675	1.416701
1.6750	1.416685
1.6825	1.416669
1.6900	1.416654
