Material: inorganic / C / Song-sHOPG-o
Optical constants. B. Song, H. Gu, S. Zhu, H. Jiang, X. Chen, C. Zhang, S. Liu. Broadband optical properties of graphene and HOPG investigated by spectroscopic Mueller matrix ellipsometry, Appl. Surf. Sci 439, 1079-1087 (2018) (Numerical data kindly provided by Baokun Song)
Comments: Highly oriented pyrolytic graphite (HOPG). Bulk. s-plane (s-HOPG). Ordinary ray (o).
Specs: {"n_absolute": true, "wavelength_vacuum": true}
wavelength (um)	n	k
0.1930	0.805272	1.186319
0.1960	0.778176	1.333576
0.1990	0.769985	1.465801
0.2020	0.774815	1.586537
0.2050	0.789490	1.698782
0.2080	0.812347	1.804833
0.2110	0.842601	1.906392
0.2140	0.880027	2.004679
0.2170	0.924786	2.100528
0.2200	0.977323	2.194428
0.2230	1.038314	2.286539
0.2260	1.108622	2.376672
0.2290	1.189242	2.464250
0.2320	1.281241	2.548239
0.2350	1.385650	2.627068
0.2380	1.503301	2.698551
0.2410	1.634598	2.759850
0.2440	1.779202	2.807506
0.2470	1.935677	2.837635
0.2500	2.101154	2.846317
0.2530	2.271160	2.830231
0.2560	2.439783	2.787418
0.2590	2.600263	2.717997
0.2620	2.745984	2.624505
0.2650	2.871559	2.511678
0.2680	2.973664	2.385668
0.2710	3.051316	2.252989
0.2740	3.105607	2.119549
0.2770	3.139081	1.990041
0.2800	3.155027	1.867734
0.2830	3.156898	1.754570
0.2860	3.147922	1.651431
0.2890	3.130899	1.558437
0.2920	3.108141	1.475217
0.2950	3.081485	1.401115
0.2980	3.052350	1.335340
0.3010	3.021811	1.277059
0.3040	2.990666	1.225461
0.3070	2.959497	1.179786
0.3100	2.928721	1.139339
0.3130	2.898628	1.103499
0.3160	2.869417	1.071715
0.3190	2.841214	1.043502
0.3220	2.814096	1.018435
0.3250	2.788103	0.996143
0.3280	2.763245	0.976303
0.3310	2.739516	0.958631
0.3340	2.716894	0.942883
0.3370	2.695348	0.928843
0.3400	2.674843	0.916323
0.3430	2.655336	0.905157
0.3460	2.636786	0.895202
0.3490	2.619150	0.886331
0.3520	2.602384	0.878430
0.3550	2.586444	0.871403
0.3580	2.571290	0.865160
0.3610	2.556880	0.859626
0.3640	2.543178	0.854730
0.3670	2.530144	0.850413
0.3700	2.517745	0.846619
0.3730	2.505947	0.843300
0.3760	2.494717	0.840412
0.3790	2.484026	0.837918
0.3820	2.473846	0.835780
0.3850	2.464150	0.833969
0.3880	2.454913	0.832456
0.3910	2.446110	0.831215
0.3940	2.437719	0.830224
0.3970	2.429720	0.829461
0.4000	2.422091	0.828908
0.4030	2.414815	0.828548
0.4060	2.407874	0.828365
0.4090	2.401250	0.828346
0.4120	2.394929	0.828476
0.4150	2.388894	0.828746
0.4180	2.383133	0.829144
0.4210	2.377632	0.829659
0.4240	2.372379	0.830285
0.4270	2.367361	0.831012
0.4300	2.362568	0.831833
0.4330	2.357990	0.832741
0.4360	2.353615	0.833730
0.4390	2.349435	0.834794
0.4420	2.345441	0.835929
0.4450	2.341624	0.837128
0.4480	2.337977	0.838388
0.4510	2.334491	0.839705
0.4540	2.331161	0.841075
0.4570	2.327978	0.842494
0.4600	2.324938	0.843959
0.4630	2.322032	0.845467
0.4660	2.319256	0.847016
0.4690	2.316605	0.848603
0.4720	2.314072	0.850225
0.4750	2.311653	0.851880
0.4780	2.309344	0.853567
0.4810	2.307140	0.855283
0.4840	2.305036	0.857027
0.4870	2.303028	0.858797
0.4900	2.301113	0.860592
0.4930	2.299288	0.862410
0.4960	2.297547	0.864250
0.4990	2.295889	0.866111
0.5020	2.294309	0.867991
0.5050	2.292806	0.869890
0.5080	2.291375	0.871806
0.5110	2.290015	0.873739
0.5140	2.288723	0.875688
0.5170	2.287495	0.877652
0.5200	2.286330	0.879630
0.5230	2.285226	0.881622
0.5260	2.284179	0.883626
0.5290	2.283189	0.885643
0.5320	2.282253	0.887672
0.5350	2.281369	0.889712
0.5380	2.280535	0.891763
0.5410	2.279750	0.893824
0.5440	2.279012	0.895894
0.5470	2.278319	0.897974
0.5500	2.277669	0.900063
0.5530	2.277062	0.902161
0.5560	2.276496	0.904267
0.5590	2.275969	0.906381
0.5620	2.275481	0.908502
0.5650	2.275029	0.910631
0.5680	2.274613	0.912767
0.5710	2.274231	0.914910
0.5740	2.273883	0.917059
0.5770	2.273567	0.919214
0.5800	2.273282	0.921376
0.5830	2.273028	0.923544
0.5860	2.272803	0.925717
0.5890	2.272606	0.927896
0.5920	2.272438	0.930080
0.5950	2.272295	0.932269
0.5980	2.272179	0.934464
0.6010	2.272088	0.936663
0.6040	2.272022	0.938866
0.6070	2.271979	0.941075
0.6100	2.271959	0.943288
0.6130	2.271961	0.945505
0.6160	2.271985	0.947726
0.6190	2.272030	0.949951
0.6220	2.272095	0.952180
0.6250	2.272181	0.954414
0.6280	2.272285	0.956650
0.6310	2.272409	0.958891
0.6340	2.272551	0.961135
0.6370	2.272710	0.963382
0.6400	2.272887	0.965633
0.6430	2.273080	0.967887
0.6460	2.273290	0.970144
0.6490	2.273515	0.972405
0.6520	2.273757	0.974668
0.6550	2.274013	0.976935
0.6580	2.274284	0.979204
0.6610	2.274569	0.981476
0.6640	2.274868	0.983751
0.6670	2.275181	0.986028
0.6700	2.275506	0.988309
0.6730	2.275845	0.990591
0.6760	2.276196	0.992877
0.6790	2.276560	0.995164
0.6820	2.276936	0.997455
0.6850	2.277323	0.999747
0.6880	2.277721	1.002042
0.6910	2.278131	1.004339
0.6940	2.278551	1.006638
0.6970	2.278982	1.008940
0.7000	2.279424	1.011243
0.7030	2.279875	1.013549
0.7060	2.280336	1.015856
0.7090	2.280807	1.018166
0.7120	2.281287	1.020477
0.7150	2.281777	1.022790
0.7180	2.282275	1.025105
0.7210	2.282783	1.027422
0.7240	2.283298	1.029741
0.7270	2.283822	1.032061
0.7300	2.284355	1.034384
0.7330	2.284895	1.036707
0.7360	2.285443	1.039033
0.7390	2.285999	1.041360
0.7420	2.286562	1.043688
0.7450	2.287133	1.046018
0.7480	2.287711	1.048349
0.7510	2.288296	1.050682
0.7540	2.288888	1.053016
0.7570	2.289486	1.055352
0.7600	2.290091	1.057689
0.7630	2.290703	1.060027
0.7660	2.291321	1.062366
0.7690	2.291945	1.064707
0.7720	2.292575	1.067049
0.7750	2.293211	1.069392
0.7780	2.293854	1.071736
0.7810	2.294501	1.074082
0.7840	2.295155	1.076428
0.7870	2.295814	1.078775
0.7900	2.296478	1.081124
0.7930	2.297148	1.083473
0.7960	2.297822	1.085824
0.7990	2.298502	1.088175
0.8020	2.299187	1.090528
0.8050	2.299877	1.092881
0.8080	2.300572	1.095235
0.8110	2.301271	1.097590
0.8140	2.301975	1.099946
0.8170	2.302683	1.102303
0.8200	2.303396	1.104660
0.8230	2.304114	1.107018
0.8260	2.304836	1.109377
0.8290	2.305562	1.111737
0.8320	2.306292	1.114097
0.8350	2.307026	1.116458
0.8380	2.307764	1.118819
0.8410	2.308506	1.121182
0.8440	2.309252	1.123544
0.8470	2.310002	1.125908
0.8500	2.310755	1.128271
0.8530	2.311512	1.130636
0.8560	2.312273	1.133001
0.8590	2.313038	1.135366
0.8620	2.313806	1.137732
0.8650	2.314577	1.140098
0.8680	2.315351	1.142465
0.8710	2.316129	1.144832
0.8740	2.316911	1.147200
0.8770	2.317695	1.149567
0.8800	2.318483	1.151936
0.8830	2.319274	1.154304
0.8860	2.320067	1.156673
0.8890	2.320864	1.159042
0.8920	2.321664	1.161411
0.8950	2.322467	1.163781
0.8980	2.323272	1.166151
0.9010	2.324080	1.168521
0.9040	2.324892	1.170891
0.9070	2.325705	1.173262
0.9100	2.326522	1.175632
0.9130	2.327341	1.178003
0.9160	2.328163	1.180374
0.9190	2.328987	1.182745
0.9220	2.329814	1.185116
0.9250	2.330643	1.187487
0.9280	2.331475	1.189858
0.9310	2.332309	1.192230
0.9340	2.333146	1.194601
0.9370	2.333985	1.196972
0.9400	2.334826	1.199344
0.9430	2.335670	1.201715
0.9460	2.336515	1.204086
0.9490	2.337363	1.206457
0.9520	2.338213	1.208829
0.9550	2.339066	1.211200
0.9580	2.339920	1.213571
0.9610	2.340776	1.215942
0.9640	2.341635	1.218313
0.9670	2.342495	1.220683
0.9700	2.343358	1.223054
0.9730	2.344222	1.225424
0.9760	2.345089	1.227794
0.9790	2.345957	1.230164
0.9820	2.346827	1.232534
0.9850	2.347699	1.234904
0.9880	2.348573	1.237273
0.9910	2.349448	1.239643
0.9940	2.350326	1.242011
0.9970	2.351205	1.244380
1.0000	2.352086	1.246749
1.0075	2.354295	1.252668
1.0150	2.356514	1.258586
1.0225	2.358744	1.264502
1.0300	2.360983	1.270415
1.0375	2.363231	1.276326
1.0450	2.365488	1.282235
1.0525	2.367754	1.288140
1.0600	2.370028	1.294043
1.0675	2.372309	1.299942
1.0750	2.374599	1.305839
1.0825	2.376896	1.311732
1.0900	2.379200	1.317621
1.0975	2.381511	1.323507
1.1050	2.383829	1.329389
1.1125	2.386153	1.335267
1.1200	2.388484	1.341141
1.1275	2.390821	1.347012
1.1350	2.393163	1.352877
1.1425	2.395512	1.358739
1.1500	2.397865	1.364596
1.1575	2.400224	1.370449
1.1650	2.402588	1.376297
1.1725	2.404957	1.382140
1.1800	2.407331	1.387979
1.1875	2.409709	1.393812
1.1950	2.412091	1.399641
1.2025	2.414478	1.405465
1.2100	2.416869	1.411283
1.2175	2.419264	1.417096
1.2250	2.421662	1.422904
1.2325	2.424065	1.428707
1.2400	2.426470	1.434504
1.2475	2.428879	1.440296
1.2550	2.431292	1.446082
1.2625	2.433707	1.451863
1.2700	2.436126	1.457637
1.2775	2.438547	1.463407
1.2850	2.440971	1.469170
1.2925	2.443398	1.474928
1.3000	2.445827	1.480680
1.3075	2.448258	1.486425
1.3150	2.450692	1.492165
1.3225	2.453128	1.497899
1.3300	2.455567	1.503627
1.3375	2.458007	1.509349
1.3450	2.460449	1.515064
1.3525	2.462893	1.520774
1.3600	2.465338	1.526477
1.3675	2.467786	1.532175
1.3750	2.470234	1.537866
1.3825	2.472685	1.543550
1.3900	2.475136	1.549228
1.3975	2.477589	1.554900
1.4050	2.480043	1.560566
1.4125	2.482498	1.566225
1.4200	2.484954	1.571878
1.4275	2.487411	1.577525
1.4350	2.489870	1.583165
1.4425	2.492328	1.588798
1.4500	2.494788	1.594426
1.4575	2.497248	1.600046
1.4650	2.499709	1.605660
1.4725	2.502171	1.611268
1.4800	2.504632	1.616869
1.4875	2.507095	1.622464
1.4950	2.509557	1.628052
1.5025	2.512020	1.633633
1.5100	2.514484	1.639208
1.5175	2.516947	1.644777
1.5250	2.519410	1.650339
1.5325	2.521874	1.655894
1.5400	2.524338	1.661443
1.5475	2.526801	1.666985
1.5550	2.529264	1.672521
1.5625	2.531728	1.678049
1.5700	2.534190	1.683572
1.5775	2.536653	1.689088
1.5850	2.539115	1.694597
1.5925	2.541578	1.700100
1.6000	2.544039	1.705596
1.6075	2.546500	1.711085
1.6150	2.548961	1.716568
1.6225	2.551421	1.722044
1.6300	2.553881	1.727514
1.6375	2.556340	1.732978
1.6450	2.558798	1.738434
1.6525	2.561256	1.743884
1.6600	2.563713	1.749328
1.6675	2.566169	1.754765
1.6750	2.568624	1.760195
1.6825	2.571078	1.765620
1.6900	2.573532	1.771037
