Material: inorganic / C / Song-sHOPG-e
Optical constants. B. Song, H. Gu, S. Zhu, H. Jiang, X. Chen, C. Zhang, S. Liu. Broadband optical properties of graphene and HOPG investigated by spectroscopic Mueller matrix ellipsometry, Appl. Surf. Sci 439, 1079-1087 (2018) (Numerical data kindly provided by Baokun Song)
Comments: Highly oriented pyrolytic graphite (HOPG). Bulk. s-plane (s-HOPG). Extraordinary ray (e).
Specs: {"n_absolute": true, "wavelength_vacuum": true}
wavelength (um)	n
0.1930	2.202955
0.1960	2.143927
0.1990	2.089473
0.2020	2.039186
0.2050	1.992698
0.2080	1.949679
0.2110	1.909831
0.2140	1.872887
0.2170	1.838602
0.2200	1.806758
0.2230	1.777155
0.2260	1.749613
0.2290	1.723968
0.2320	1.700070
0.2350	1.677785
0.2380	1.656987
0.2410	1.637564
0.2440	1.619412
0.2470	1.602437
0.2500	1.586552
0.2530	1.571678
0.2560	1.557742
0.2590	1.544677
0.2620	1.532423
0.2650	1.520921
0.2680	1.510120
0.2710	1.499972
0.2740	1.490433
0.2770	1.481462
0.2800	1.473021
0.2830	1.465075
0.2860	1.457591
0.2890	1.450540
0.2920	1.443894
0.2950	1.437627
0.2980	1.431716
0.3010	1.426137
0.3040	1.420870
0.3070	1.415896
0.3100	1.411198
0.3130	1.406758
0.3160	1.402560
0.3190	1.398592
0.3220	1.394837
0.3250	1.391286
0.3280	1.387925
0.3310	1.384743
0.3340	1.381730
0.3370	1.378876
0.3400	1.376173
0.3430	1.373612
0.3460	1.371185
0.3490	1.368885
0.3520	1.366704
0.3550	1.364636
0.3580	1.362675
0.3610	1.360815
0.3640	1.359050
0.3670	1.357376
0.3700	1.355788
0.3730	1.354281
0.3760	1.352851
0.3790	1.351493
0.3820	1.350205
0.3850	1.348982
0.3880	1.347821
0.3910	1.346720
0.3940	1.345674
0.3970	1.344681
0.4000	1.343739
0.4030	1.342845
0.4060	1.341996
0.4090	1.341190
0.4120	1.340426
0.4150	1.339701
0.4180	1.339013
0.4210	1.338360
0.4240	1.337741
0.4270	1.337154
0.4300	1.336597
0.4330	1.336069
0.4360	1.335569
0.4390	1.335096
0.4420	1.334647
0.4450	1.334222
0.4480	1.333820
0.4510	1.333439
0.4540	1.333080
0.4570	1.332740
0.4600	1.332418
0.4630	1.332115
0.4660	1.331828
0.4690	1.331558
0.4720	1.331304
0.4750	1.331064
0.4780	1.330838
0.4810	1.330626
0.4840	1.330427
0.4870	1.330240
0.4900	1.330065
0.4930	1.329901
0.4960	1.329747
0.4990	1.329604
0.5020	1.329470
0.5050	1.329346
0.5080	1.329231
0.5110	1.329124
0.5140	1.329025
0.5170	1.328934
0.5200	1.328850
0.5230	1.328773
0.5260	1.328703
0.5290	1.328640
0.5320	1.328582
0.5350	1.328530
0.5380	1.328484
0.5410	1.328444
0.5440	1.328408
0.5470	1.328377
0.5500	1.328351
0.5530	1.328329
0.5560	1.328312
0.5590	1.328298
0.5620	1.328289
0.5650	1.328283
0.5680	1.328280
0.5710	1.328281
0.5740	1.328285
0.5770	1.328292
0.5800	1.328302
0.5830	1.328315
0.5860	1.328331
0.5890	1.328348
0.5920	1.328369
0.5950	1.328391
0.5980	1.328416
0.6010	1.328443
0.6040	1.328471
0.6070	1.328502
0.6100	1.328534
0.6130	1.328568
0.6160	1.328604
0.6190	1.328641
0.6220	1.328679
0.6250	1.328719
0.6280	1.328760
0.6310	1.328803
0.6340	1.328846
0.6370	1.328891
0.6400	1.328937
0.6430	1.328983
0.6460	1.329031
0.6490	1.329079
0.6520	1.329128
0.6550	1.329178
0.6580	1.329229
0.6610	1.329281
0.6640	1.329333
0.6670	1.329385
0.6700	1.329438
0.6730	1.329492
0.6760	1.329546
0.6790	1.329601
0.6820	1.329656
0.6850	1.329711
0.6880	1.329767
0.6910	1.329823
0.6940	1.329880
0.6970	1.329936
0.7000	1.329993
0.7030	1.330050
0.7060	1.330108
0.7090	1.330165
0.7120	1.330223
0.7150	1.330281
0.7180	1.330338
0.7210	1.330396
0.7240	1.330454
0.7270	1.330513
0.7300	1.330571
0.7330	1.330629
0.7360	1.330687
0.7390	1.330745
0.7420	1.330803
0.7450	1.330861
0.7480	1.330919
0.7510	1.330977
0.7540	1.331035
0.7570	1.331093
0.7600	1.331151
0.7630	1.331208
0.7660	1.331266
0.7690	1.331323
0.7720	1.331380
0.7750	1.331437
0.7780	1.331494
0.7810	1.331551
0.7840	1.331608
0.7870	1.331664
0.7900	1.331720
0.7930	1.331777
0.7960	1.331833
0.7990	1.331888
0.8020	1.331944
0.8050	1.331999
0.8080	1.332054
0.8110	1.332109
0.8140	1.332164
0.8170	1.332218
0.8200	1.332273
0.8230	1.332327
0.8260	1.332380
0.8290	1.332434
0.8320	1.332487
0.8350	1.332540
0.8380	1.332593
0.8410	1.332646
0.8440	1.332698
0.8470	1.332750
0.8500	1.332802
0.8530	1.332854
0.8560	1.332905
0.8590	1.332956
0.8620	1.333007
0.8650	1.333058
0.8680	1.333108
0.8710	1.333158
0.8740	1.333208
0.8770	1.333257
0.8800	1.333307
0.8830	1.333356
0.8860	1.333404
0.8890	1.333453
0.8920	1.333501
0.8950	1.333549
0.8980	1.333597
0.9010	1.333644
0.9040	1.333691
0.9070	1.333738
0.9100	1.333785
0.9130	1.333831
0.9160	1.333878
0.9190	1.333923
0.9220	1.333969
0.9250	1.334014
0.9280	1.334059
0.9310	1.334104
0.9340	1.334149
0.9370	1.334193
0.9400	1.334237
0.9430	1.334281
0.9460	1.334324
0.9490	1.334368
0.9520	1.334411
0.9550	1.334453
0.9580	1.334496
0.9610	1.334538
0.9640	1.334580
0.9670	1.334622
0.9700	1.334663
0.9730	1.334705
0.9760	1.334746
0.9790	1.334786
0.9820	1.334827
0.9850	1.334867
0.9880	1.334907
0.9910	1.334947
0.9940	1.334986
0.9970	1.335026
1.0000	1.335065
1.0075	1.335161
1.0150	1.335256
1.0225	1.335350
1.0300	1.335442
1.0375	1.335533
1.0450	1.335622
1.0525	1.335710
1.0600	1.335797
1.0675	1.335882
1.0750	1.335966
1.0825	1.336049
1.0900	1.336130
1.0975	1.336210
1.1050	1.336289
1.1125	1.336367
1.1200	1.336444
1.1275	1.336519
1.1350	1.336593
1.1425	1.336666
1.1500	1.336738
1.1575	1.336809
1.1650	1.336879
1.1725	1.336948
1.1800	1.337016
1.1875	1.337082
1.1950	1.337148
1.2025	1.337213
1.2100	1.337276
1.2175	1.337339
1.2250	1.337401
1.2325	1.337462
1.2400	1.337522
1.2475	1.337581
1.2550	1.337639
1.2625	1.337696
1.2700	1.337753
1.2775	1.337809
1.2850	1.337864
1.2925	1.337918
1.3000	1.337971
1.3075	1.338024
1.3150	1.338075
1.3225	1.338126
1.3300	1.338177
1.3375	1.338226
1.3450	1.338275
1.3525	1.338323
1.3600	1.338371
1.3675	1.338418
1.3750	1.338464
1.3825	1.338509
1.3900	1.338554
1.3975	1.338598
1.4050	1.338642
1.4125	1.338685
1.4200	1.338728
1.4275	1.338770
1.4350	1.338811
1.4425	1.338852
1.4500	1.338892
1.4575	1.338931
1.4650	1.338971
1.4725	1.339009
1.4800	1.339047
1.4875	1.339085
1.4950	1.339122
1.5025	1.339158
1.5100	1.339194
1.5175	1.339230
1.5250	1.339265
1.5325	1.339300
1.5400	1.339334
1.5475	1.339368
1.5550	1.339401
1.5625	1.339434
1.5700	1.339467
1.5775	1.339499
1.5850	1.339530
1.5925	1.339562
1.6000	1.339592
1.6075	1.339623
1.6150	1.339653
1.6225	1.339683
1.6300	1.339712
1.6375	1.339741
1.6450	1.339770
1.6525	1.339798
1.6600	1.339826
1.6675	1.339853
1.6750	1.339881
1.6825	1.339908
1.6900	1.339934
