Material: inorganic / C / Song
Optical constants. B. Song, H. Gu, S. Zhu, H. Jiang, X. Chen, C. Zhang, S. Liu. Broadband optical properties of graphene and HOPG investigated by spectroscopic Mueller matrix ellipsometry, Appl. Surf. Sci 439, 1079-1087 (2018) (Numerical data kindly provided by Baokun Song)
Comments: Mono-graphene fabricated by chemical vapor deposition (CVD).
Specs: {"n_absolute": true, "wavelength_vacuum": true, "substrate": "quartz_glass", "film_thickness": "1L"}
wavelength (um)	n	k
0.1930	1.168344	2.036747
0.1960	1.233971	2.052392
0.1990	1.285734	2.046631
0.2020	1.318570	2.028031
0.2050	1.330655	2.005826
0.2080	1.323514	1.988618
0.2110	1.301371	1.983204
0.2140	1.270062	1.993901
0.2170	1.235898	2.022444
0.2200	1.204707	2.068322
0.2230	1.181191	2.129408
0.2260	1.168673	2.202696
0.2290	1.169193	2.284944
0.2320	1.183814	2.373095
0.2350	1.212990	2.464454
0.2380	1.256878	2.556680
0.2410	1.315553	2.647646
0.2440	1.389111	2.735253
0.2470	1.477648	2.817208
0.2500	1.581121	2.890814
0.2530	1.699057	2.952834
0.2560	1.830118	2.999492
0.2590	1.971601	3.026769
0.2620	2.119028	3.031070
0.2650	2.266169	3.010244
0.2680	2.405749	2.964622
0.2710	2.530837	2.897533
0.2740	2.636410	2.814852
0.2770	2.720356	2.723660
0.2800	2.783471	2.630649
0.2830	2.828625	2.540969
0.2860	2.859640	2.457814
0.2890	2.880353	2.382617
0.2920	2.894061	2.315536
0.2950	2.903317	2.255961
0.2980	2.909944	2.202914
0.3010	2.915151	2.155323
0.3040	2.919683	2.112169
0.3070	2.923955	2.072564
0.3100	2.928160	2.035773
0.3130	2.932351	2.001207
0.3160	2.936499	1.968415
0.3190	2.940530	1.937054
0.3220	2.944351	1.906874
0.3250	2.947870	1.877698
0.3280	2.950998	1.849403
0.3310	2.953660	1.821909
0.3340	2.955797	1.795169
0.3370	2.957362	1.769157
0.3400	2.958325	1.743864
0.3430	2.958668	1.719292
0.3460	2.958384	1.695449
0.3490	2.957480	1.672349
0.3520	2.955968	1.650006
0.3550	2.953869	1.628434
0.3580	2.951210	1.607647
0.3610	2.948022	1.587655
0.3640	2.944340	1.568468
0.3670	2.940202	1.550091
0.3700	2.935647	1.532526
0.3730	2.930715	1.515775
0.3760	2.925447	1.499834
0.3790	2.919883	1.484695
0.3820	2.914063	1.470352
0.3850	2.908026	1.456792
0.3880	2.901810	1.444002
0.3910	2.895450	1.431965
0.3940	2.888982	1.420666
0.3970	2.882437	1.410083
0.4000	2.875846	1.400198
0.4030	2.869238	1.390987
0.4060	2.862640	1.382430
0.4090	2.856076	1.374502
0.4120	2.849568	1.367180
0.4150	2.843138	1.360439
0.4180	2.836804	1.354255
0.4210	2.830582	1.348604
0.4240	2.824487	1.343462
0.4270	2.818534	1.338803
0.4300	2.812732	1.334604
0.4330	2.807093	1.330842
0.4360	2.801624	1.327494
0.4390	2.796333	1.324536
0.4420	2.791225	1.321948
0.4450	2.786305	1.319707
0.4480	2.781577	1.317794
0.4510	2.777042	1.316187
0.4540	2.772703	1.314869
0.4570	2.768559	1.313821
0.4600	2.764611	1.313025
0.4630	2.760857	1.312463
0.4660	2.757296	1.312122
0.4690	2.753926	1.311983
0.4720	2.750745	1.312035
0.4750	2.747748	1.312262
0.4780	2.744933	1.312651
0.4810	2.742296	1.313191
0.4840	2.739832	1.313869
0.4870	2.737538	1.314674
0.4900	2.735408	1.315598
0.4930	2.733439	1.316628
0.4960	2.731624	1.317758
0.4990	2.729961	1.318977
0.5020	2.728442	1.320279
0.5050	2.727064	1.321656
0.5080	2.725821	1.323100
0.5110	2.724708	1.324607
0.5140	2.723721	1.326169
0.5170	2.722854	1.327781
0.5200	2.722102	1.329439
0.5230	2.721461	1.331137
0.5260	2.720926	1.332871
0.5290	2.720492	1.334638
0.5320	2.720155	1.336433
0.5350	2.719910	1.338254
0.5380	2.719753	1.340097
0.5410	2.719680	1.341959
0.5440	2.719686	1.343839
0.5470	2.719768	1.345733
0.5500	2.719922	1.347641
0.5530	2.720143	1.349558
0.5560	2.720430	1.351486
0.5590	2.720777	1.353420
0.5620	2.721182	1.355362
0.5650	2.721642	1.357308
0.5680	2.722153	1.359259
0.5710	2.722712	1.361213
0.5740	2.723317	1.363169
0.5770	2.723964	1.365128
0.5800	2.724652	1.367087
0.5830	2.725378	1.369048
0.5860	2.726138	1.371009
0.5890	2.726932	1.372970
0.5920	2.727756	1.374931
0.5950	2.728609	1.376892
0.5980	2.729489	1.378853
0.6010	2.730393	1.380813
0.6040	2.731320	1.382773
0.6070	2.732268	1.384733
0.6100	2.733236	1.386692
0.6130	2.734222	1.388652
0.6160	2.735224	1.390611
0.6190	2.736241	1.392571
0.6220	2.737272	1.394531
0.6250	2.738315	1.396492
0.6280	2.739370	1.398454
0.6310	2.740434	1.400418
0.6340	2.741508	1.402383
0.6370	2.742590	1.404350
0.6400	2.743679	1.406319
0.6430	2.744774	1.408291
0.6460	2.745874	1.410265
0.6490	2.746979	1.412243
0.6520	2.748088	1.414224
0.6550	2.749200	1.416210
0.6580	2.750314	1.418199
0.6610	2.751430	1.420194
0.6640	2.752547	1.422193
0.6670	2.753665	1.424198
0.6700	2.754783	1.426208
0.6730	2.755901	1.428224
0.6760	2.757019	1.430247
0.6790	2.758135	1.432277
0.6820	2.759250	1.434314
0.6850	2.760363	1.436358
0.6880	2.761474	1.438410
0.6910	2.762583	1.440470
0.6940	2.763690	1.442538
0.6970	2.764793	1.444615
0.7000	2.765893	1.446701
0.7030	2.766991	1.448797
0.7060	2.768085	1.450902
0.7090	2.769176	1.453017
0.7120	2.770262	1.455142
0.7150	2.771346	1.457277
0.7180	2.772425	1.459424
0.7210	2.773501	1.461581
0.7240	2.774573	1.463749
0.7270	2.775640	1.465929
0.7300	2.776705	1.468121
0.7330	2.777765	1.470324
0.7360	2.778821	1.472539
0.7390	2.779872	1.474767
0.7420	2.780921	1.477007
0.7450	2.781965	1.479260
0.7480	2.783005	1.481526
0.7510	2.784042	1.483805
0.7540	2.785075	1.486097
0.7570	2.786104	1.488403
0.7600	2.787129	1.490722
0.7630	2.788152	1.493055
0.7660	2.789171	1.495402
0.7690	2.790186	1.497762
0.7720	2.791198	1.500137
0.7750	2.792207	1.502526
0.7780	2.793214	1.504929
0.7810	2.794217	1.507347
0.7840	2.795218	1.509779
0.7870	2.796216	1.512226
0.7900	2.797212	1.514688
0.7930	2.798206	1.517164
0.7960	2.799197	1.519655
0.7990	2.800187	1.522161
0.8020	2.801174	1.524682
0.8050	2.802160	1.527219
0.8080	2.803144	1.529770
0.8110	2.804128	1.532336
0.8140	2.805109	1.534918
0.8170	2.806090	1.537515
0.8200	2.807070	1.540127
0.8230	2.808049	1.542754
0.8260	2.809028	1.545397
0.8290	2.810006	1.548055
0.8320	2.810984	1.550728
0.8350	2.811962	1.553417
0.8380	2.812940	1.556121
0.8410	2.813919	1.558840
0.8440	2.814898	1.561575
0.8470	2.815877	1.564325
0.8500	2.816857	1.567090
0.8530	2.817839	1.569871
0.8560	2.818821	1.572666
0.8590	2.819805	1.575477
0.8620	2.820790	1.578303
0.8650	2.821777	1.581145
0.8680	2.822766	1.584001
0.8710	2.823757	1.586872
0.8740	2.824750	1.589759
0.8770	2.825745	1.592660
0.8800	2.826743	1.595577
0.8830	2.827743	1.598508
0.8860	2.828746	1.601454
0.8890	2.829753	1.604414
0.8920	2.830762	1.607390
0.8950	2.831775	1.610380
0.8980	2.832791	1.613384
0.9010	2.833811	1.616403
0.9040	2.834834	1.619436
0.9070	2.835862	1.622484
0.9100	2.836894	1.625546
0.9130	2.837930	1.628622
0.9160	2.838970	1.631712
0.9190	2.840015	1.634816
0.9220	2.841064	1.637933
0.9250	2.842119	1.641065
0.9280	2.843178	1.644210
0.9310	2.844243	1.647369
0.9340	2.845312	1.650542
0.9370	2.846387	1.653728
0.9400	2.847468	1.656927
0.9430	2.848555	1.660139
0.9460	2.849647	1.663364
0.9490	2.850745	1.666603
0.9520	2.851849	1.669854
0.9550	2.852960	1.673118
0.9580	2.854076	1.676395
0.9610	2.855200	1.679684
0.9640	2.856329	1.682986
0.9670	2.857466	1.686300
0.9700	2.858609	1.689626
0.9730	2.859759	1.692964
0.9760	2.860917	1.696314
0.9790	2.862081	1.699677
0.9820	2.863253	1.703051
0.9850	2.864432	1.706436
0.9880	2.865618	1.709833
0.9910	2.866812	1.713241
0.9940	2.868014	1.716661
0.9970	2.869224	1.720092
1.0000	2.870441	1.723534
1.0075	2.873520	1.732185
1.0150	2.876651	1.740903
1.0225	2.879834	1.749685
1.0300	2.883071	1.758530
1.0375	2.886364	1.767434
1.0450	2.889712	1.776396
1.0525	2.893119	1.785415
1.0600	2.896584	1.794487
1.0675	2.900109	1.803612
1.0750	2.903694	1.812786
1.0825	2.907341	1.822009
1.0900	2.911049	1.831277
1.0975	2.914820	1.840590
1.1050	2.918655	1.849945
1.1125	2.922554	1.859340
1.1200	2.926517	1.868773
1.1275	2.930544	1.878242
1.1350	2.934638	1.887746
1.1425	2.938796	1.897282
1.1500	2.943021	1.906848
1.1575	2.947312	1.916443
1.1650	2.951669	1.926066
1.1725	2.956093	1.935713
1.1800	2.960583	1.945383
1.1875	2.965140	1.955076
1.1950	2.969763	1.964787
1.2025	2.974453	1.974518
1.2100	2.979210	1.984264
1.2175	2.984033	1.994026
1.2250	2.988922	2.003801
1.2325	2.993877	2.013587
1.2400	2.998899	2.023384
1.2475	3.003986	2.033190
1.2550	3.009138	2.043003
1.2625	3.014355	2.052821
1.2700	3.019637	2.062644
1.2775	3.024984	2.072470
1.2850	3.030394	2.082298
1.2925	3.035868	2.092126
1.3000	3.041405	2.101954
1.3075	3.047005	2.111778
1.3150	3.052667	2.121600
1.3225	3.058391	2.131418
1.3300	3.064176	2.141229
1.3375	3.070022	2.151034
1.3450	3.075928	2.160830
1.3525	3.081894	2.170618
1.3600	3.087919	2.180396
1.3675	3.094003	2.190163
1.3750	3.100144	2.199918
1.3825	3.106343	2.209660
1.3900	3.112599	2.219388
1.3975	3.118911	2.229102
1.4050	3.125279	2.238800
1.4125	3.131701	2.248482
1.4200	3.138178	2.258146
1.4275	3.144708	2.267792
1.4350	3.151292	2.277420
1.4425	3.157928	2.287029
1.4500	3.164616	2.296617
1.4575	3.171355	2.306184
1.4650	3.178145	2.315730
1.4725	3.184984	2.325254
1.4800	3.191873	2.334756
1.4875	3.198810	2.344234
1.4950	3.205796	2.353688
1.5025	3.212828	2.363118
1.5100	3.219907	2.372523
1.5175	3.227032	2.381902
1.5250	3.234202	2.391256
1.5325	3.241418	2.400584
1.5400	3.248677	2.409884
1.5475	3.255980	2.419158
1.5550	3.263325	2.428404
1.5625	3.270713	2.437622
1.5700	3.278142	2.446811
1.5775	3.285612	2.455973
1.5850	3.293122	2.465105
1.5925	3.300672	2.474208
1.6000	3.308262	2.483281
1.6075	3.315889	2.492324
1.6150	3.323555	2.501337
1.6225	3.331258	2.510320
1.6300	3.338997	2.519273
1.6375	3.346773	2.528194
1.6450	3.354584	2.537084
1.6525	3.362430	2.545943
1.6600	3.370311	2.554770
1.6675	3.378225	2.563566
1.6750	3.386173	2.572330
1.6825	3.394153	2.581063
1.6900	3.402166	2.589762
