Material: inorganic / C / Song-cHOPG-o
Optical constants. B. Song, H. Gu, S. Zhu, H. Jiang, X. Chen, C. Zhang, S. Liu. Broadband optical properties of graphene and HOPG investigated by spectroscopic Mueller matrix ellipsometry, Appl. Surf. Sci 439, 1079-1087 (2018) (Numerical data kindly provided by Baokun Song)
Comments: Highly oriented pyrolytic graphite (HOPG). Bulk. c-plane (c-HOPG). Ordinary ray (o).
Specs: {"n_absolute": true, "wavelength_vacuum": true}
wavelength (um)	n	k
0.1930	0.625318	1.172111
0.1960	0.623188	1.306551
0.1990	0.632447	1.429149
0.2020	0.649988	1.542717
0.2050	0.674136	1.649435
0.2080	0.704010	1.750948
0.2110	0.739212	1.848489
0.2140	0.779659	1.942971
0.2170	0.825498	2.035059
0.2200	0.877064	2.125191
0.2230	0.934846	2.213598
0.2260	0.999471	2.300292
0.2290	1.071685	2.385037
0.2320	1.152323	2.467313
0.2350	1.242262	2.546251
0.2380	1.342346	2.620579
0.2410	1.453264	2.688554
0.2440	1.575383	2.747928
0.2470	1.708524	2.795971
0.2500	1.851690	2.829592
0.2530	2.002817	2.845606
0.2560	2.158608	2.841163
0.2590	2.314578	2.814309
0.2620	2.465401	2.764551
0.2650	2.605562	2.693226
0.2680	2.730169	2.603514
0.2710	2.835695	2.500014
0.2740	2.920392	2.388021
0.2770	2.984299	2.272736
0.2800	3.028895	2.158643
0.2830	3.056586	2.049171
0.2860	3.070197	1.946630
0.2890	3.072575	1.852334
0.2920	3.066331	1.766819
0.2950	3.053721	1.690060
0.2980	3.036606	1.621676
0.3010	3.016469	1.561073
0.3040	2.994465	1.507563
0.3070	2.971473	1.460426
0.3100	2.948145	1.418963
0.3130	2.924962	1.382517
0.3160	2.902264	1.350485
0.3190	2.880288	1.322327
0.3220	2.859192	1.297560
0.3250	2.839073	1.275759
0.3280	2.819984	1.256552
0.3310	2.801948	1.239611
0.3340	2.784962	1.224653
0.3370	2.769007	1.211428
0.3400	2.754053	1.199722
0.3430	2.740060	1.189346
0.3460	2.726985	1.180136
0.3490	2.714783	1.171952
0.3520	2.703405	1.164667
0.3550	2.692803	1.158176
0.3580	2.682930	1.152384
0.3610	2.673742	1.147208
0.3640	2.665192	1.142578
0.3670	2.657240	1.138431
0.3700	2.649844	1.134711
0.3730	2.642967	1.131372
0.3760	2.636572	1.128372
0.3790	2.630627	1.125674
0.3820	2.625098	1.123246
0.3850	2.619958	1.121060
0.3880	2.615177	1.119091
0.3910	2.610729	1.117318
0.3940	2.606592	1.115722
0.3970	2.602742	1.114287
0.4000	2.599158	1.112997
0.4030	2.595821	1.111840
0.4060	2.592714	1.110806
0.4090	2.589818	1.109883
0.4120	2.587120	1.109063
0.4150	2.584604	1.108340
0.4180	2.582257	1.107705
0.4210	2.580066	1.107154
0.4240	2.578021	1.106682
0.4270	2.576110	1.106283
0.4300	2.574324	1.105954
0.4330	2.572654	1.105692
0.4360	2.571090	1.105493
0.4390	2.569627	1.105355
0.4420	2.568255	1.105275
0.4450	2.566969	1.105253
0.4480	2.565763	1.105285
0.4510	2.564630	1.105370
0.4540	2.563565	1.105507
0.4570	2.562565	1.105695
0.4600	2.561623	1.105933
0.4630	2.560736	1.106220
0.4660	2.559900	1.106555
0.4690	2.559112	1.106938
0.4720	2.558368	1.107367
0.4750	2.557666	1.107842
0.4780	2.557003	1.108363
0.4810	2.556375	1.108930
0.4840	2.555781	1.109541
0.4870	2.555219	1.110197
0.4900	2.554687	1.110897
0.4930	2.554182	1.111642
0.4960	2.553704	1.112429
0.4990	2.553251	1.113261
0.5020	2.552821	1.114136
0.5050	2.552413	1.115054
0.5080	2.552026	1.116014
0.5110	2.551660	1.117017
0.5140	2.551312	1.118062
0.5170	2.550982	1.119150
0.5200	2.550671	1.120279
0.5230	2.550375	1.121450
0.5260	2.550097	1.122662
0.5290	2.549833	1.123916
0.5320	2.549585	1.125210
0.5350	2.549351	1.126546
0.5380	2.549132	1.127921
0.5410	2.548927	1.129337
0.5440	2.548735	1.130793
0.5470	2.548557	1.132289
0.5500	2.548393	1.133824
0.5530	2.548241	1.135398
0.5560	2.548102	1.137011
0.5590	2.547976	1.138662
0.5620	2.547862	1.140352
0.5650	2.547762	1.142079
0.5680	2.547673	1.143845
0.5710	2.547598	1.145647
0.5740	2.547535	1.147487
0.5770	2.547484	1.149363
0.5800	2.547446	1.151275
0.5830	2.547421	1.153224
0.5860	2.547409	1.155208
0.5890	2.547409	1.157227
0.5920	2.547422	1.159281
0.5950	2.547447	1.161370
0.5980	2.547486	1.163492
0.6010	2.547538	1.165649
0.6040	2.547603	1.167839
0.6070	2.547682	1.170062
0.6100	2.547773	1.172317
0.6130	2.547879	1.174605
0.6160	2.547998	1.176925
0.6190	2.548130	1.179276
0.6220	2.548277	1.181658
0.6250	2.548437	1.184071
0.6280	2.548612	1.186514
0.6310	2.548801	1.188987
0.6340	2.549004	1.191489
0.6370	2.549222	1.194021
0.6400	2.549454	1.196581
0.6430	2.549701	1.199169
0.6460	2.549963	1.201785
0.6490	2.550240	1.204429
0.6520	2.550532	1.207099
0.6550	2.550839	1.209797
0.6580	2.551162	1.212520
0.6610	2.551499	1.215269
0.6640	2.551853	1.218044
0.6670	2.552222	1.220843
0.6700	2.552606	1.223667
0.6730	2.553007	1.226516
0.6760	2.553423	1.229388
0.6790	2.553856	1.232283
0.6820	2.554305	1.235201
0.6850	2.554769	1.238142
0.6880	2.555250	1.241106
0.6910	2.555748	1.244090
0.6940	2.556262	1.247097
0.6970	2.556792	1.250124
0.7000	2.557339	1.253172
0.7030	2.557902	1.256240
0.7060	2.558482	1.259328
0.7090	2.559079	1.262435
0.7120	2.559693	1.265562
0.7150	2.560323	1.268707
0.7180	2.560971	1.271870
0.7210	2.561635	1.275051
0.7240	2.562316	1.278250
0.7270	2.563014	1.281466
0.7300	2.563730	1.284699
0.7330	2.564462	1.287949
0.7360	2.565211	1.291214
0.7390	2.565978	1.294496
0.7420	2.566761	1.297792
0.7450	2.567562	1.301104
0.7480	2.568379	1.304430
0.7510	2.569214	1.307771
0.7540	2.570066	1.311126
0.7570	2.570935	1.314495
0.7600	2.571822	1.317877
0.7630	2.572725	1.321272
0.7660	2.573646	1.324679
0.7690	2.574584	1.328099
0.7720	2.575538	1.331531
0.7750	2.576510	1.334975
0.7780	2.577499	1.338430
0.7810	2.578505	1.341897
0.7840	2.579528	1.345374
0.7870	2.580567	1.348862
0.7900	2.581624	1.352360
0.7930	2.582698	1.355867
0.7960	2.583788	1.359385
0.7990	2.584896	1.362912
0.8020	2.586020	1.366447
0.8050	2.587161	1.369992
0.8080	2.588318	1.373545
0.8110	2.589492	1.377107
0.8140	2.590683	1.380676
0.8170	2.591890	1.384253
0.8200	2.593114	1.387837
0.8230	2.594354	1.391429
0.8260	2.595611	1.395027
0.8290	2.596884	1.398632
0.8320	2.598173	1.402244
0.8350	2.599478	1.405861
0.8380	2.600800	1.409485
0.8410	2.602137	1.413114
0.8440	2.603490	1.416749
0.8470	2.604860	1.420388
0.8500	2.606245	1.424033
0.8530	2.607646	1.427683
0.8560	2.609062	1.431337
0.8590	2.610494	1.434995
0.8620	2.611942	1.438657
0.8650	2.613405	1.442324
0.8680	2.614884	1.445994
0.8710	2.616378	1.449667
0.8740	2.617887	1.453344
0.8770	2.619411	1.457023
0.8800	2.620950	1.460706
0.8830	2.622504	1.464391
0.8860	2.624073	1.468079
0.8890	2.625657	1.471768
0.8920	2.627255	1.475461
0.8950	2.628868	1.479154
0.8980	2.630496	1.482850
0.9010	2.632138	1.486547
0.9040	2.633794	1.490246
0.9070	2.635465	1.493946
0.9100	2.637150	1.497646
0.9130	2.638849	1.501348
0.9160	2.640561	1.505050
0.9190	2.642288	1.508753
0.9220	2.644028	1.512457
0.9250	2.645782	1.516160
0.9280	2.647550	1.519864
0.9310	2.649332	1.523568
0.9340	2.651126	1.527271
0.9370	2.652934	1.530974
0.9400	2.654755	1.534677
0.9430	2.656590	1.538379
0.9460	2.658437	1.542080
0.9490	2.660297	1.545780
0.9520	2.662170	1.549480
0.9550	2.664056	1.553178
0.9580	2.665954	1.556875
0.9610	2.667865	1.560570
0.9640	2.669789	1.564264
0.9670	2.671725	1.567957
0.9700	2.673673	1.571647
0.9730	2.675633	1.575336
0.9760	2.677605	1.579023
0.9790	2.679589	1.582707
0.9820	2.681585	1.586390
0.9850	2.683593	1.590070
0.9880	2.685613	1.593748
0.9910	2.687644	1.597423
0.9940	2.689687	1.601096
0.9970	2.691741	1.604766
1.0000	2.693806	1.608433
1.0075	2.699018	1.617588
1.0150	2.704298	1.626724
1.0225	2.709646	1.635839
1.0300	2.715060	1.644931
1.0375	2.720537	1.654001
1.0450	2.726077	1.663046
1.0525	2.731679	1.672066
1.0600	2.737341	1.681059
1.0675	2.743061	1.690025
1.0750	2.748838	1.698963
1.0825	2.754672	1.707872
1.0900	2.760560	1.716751
1.0975	2.766501	1.725599
1.1050	2.772495	1.734416
1.1125	2.778539	1.743201
1.1200	2.784632	1.751954
1.1275	2.790774	1.760673
1.1350	2.796963	1.769359
1.1425	2.803199	1.778011
1.1500	2.809479	1.786629
1.1575	2.815802	1.795211
1.1650	2.822168	1.803758
1.1725	2.828576	1.812270
1.1800	2.835024	1.820746
1.1875	2.841511	1.829185
1.1950	2.848037	1.837588
1.2025	2.854600	1.845955
1.2100	2.861200	1.854284
1.2175	2.867835	1.862577
1.2250	2.874504	1.870832
1.2325	2.881207	1.879050
1.2400	2.887943	1.887231
1.2475	2.894710	1.895374
1.2550	2.901508	1.903479
1.2625	2.908336	1.911547
1.2700	2.915194	1.919577
1.2775	2.922080	1.927569
1.2850	2.928994	1.935524
1.2925	2.935935	1.943440
1.3000	2.942901	1.951319
1.3075	2.949894	1.959161
1.3150	2.956911	1.966965
1.3225	2.963952	1.974731
1.3300	2.971016	1.982460
1.3375	2.978103	1.990151
1.3450	2.985212	1.997805
1.3525	2.992342	2.005422
1.3600	2.999493	2.013002
1.3675	3.006665	2.020544
1.3750	3.013856	2.028050
1.3825	3.021065	2.035519
1.3900	3.028294	2.042952
1.3975	3.035540	2.050348
1.4050	3.042804	2.057707
1.4125	3.050084	2.065030
1.4200	3.057381	2.072318
1.4275	3.064694	2.079569
1.4350	3.072022	2.086785
1.4425	3.079365	2.093965
1.4500	3.086723	2.101110
1.4575	3.094095	2.108220
1.4650	3.101480	2.115295
1.4725	3.108878	2.122335
1.4800	3.116289	2.129340
1.4875	3.123713	2.136311
1.4950	3.131148	2.143248
1.5025	3.138595	2.150151
1.5100	3.146053	2.157019
1.5175	3.153522	2.163855
1.5250	3.161002	2.170656
1.5325	3.168491	2.177425
1.5400	3.175991	2.184160
1.5475	3.183500	2.190863
1.5550	3.191018	2.197533
1.5625	3.198545	2.204171
1.5700	3.206081	2.210776
1.5775	3.213625	2.217349
1.5850	3.221177	2.223891
1.5925	3.228737	2.230401
1.6000	3.236304	2.236880
1.6075	3.243878	2.243327
1.6150	3.251459	2.249743
1.6225	3.259047	2.256129
1.6300	3.266642	2.262484
1.6375	3.274242	2.268809
1.6450	3.281849	2.275103
1.6525	3.289461	2.281368
1.6600	3.297079	2.287603
1.6675	3.304702	2.293808
1.6750	3.312331	2.299984
1.6825	3.319964	2.306131
1.6900	3.327602	2.312249
