Material: hikari / SiO2 / NIFS-S
Optical constants. NIKON Zemax catalog 2017-11 (obtained from http://www.nikon.com)See also NIKON synthetic silica glass data sheet
Comments: TCE value is available for 25 to 300 degrees Celsius.
Specs: {"n_absolute": false, "wavelength_vacuum": false, "temperature": "22.5 °C", "thermal_dispersion": [{"type": "Schott formula", "coefficients": "2.15e-05 3.84e-08 -5.68e-13 3.33e-07 3.98e-10 0.184"}], "nd": 1.458477, "Vd": 67.826411, "density": "2.2 g/cm3", "thermal_expansion": [{"temperature_range": "-30 70 °C", "coefficient": "6.3e-07 K-1"}], "dPgF": -0.0021, "climatic_resistance": 1.0, "stain_resistance": 0.0, "acid_resistance": 1.0, "alkali_resistance": 1.0, "phosphate_resistance": 1.0}
Dispersion formula 2, range 0.18489 2.32542 um, coefficients 0 0.565169763 0.003823156 0.422092787 0.011444418 0.11689465 0.015169704 0.883720207 96.4254081
wavelength (um)	k
0.193	2.4772E-07
0.229	1.8232E-08
0.248	1.9745E-08
0.260	2.0700E-08
0.270	2.1497E-08
0.280	2.2293E-08
0.290	2.3089E-08
0.297	2.3646E-08
0.313	2.4920E-08
0.320	2.5478E-08
0.334	2.6592E-08
0.365	2.9060E-08
0.370	2.9458E-08
0.370	2.9458E-08
0.380	3.0255E-08
0.390	3.1051E-08
0.400	3.1847E-08
0.405	3.2245E-08
0.420	3.3439E-08
0.436	3.4713E-08
0.460	3.6624E-08
0.480	3.8216E-08
0.500	3.9809E-08
0.546	4.3471E-08
0.589	4.6895E-08
0.632	5.0318E-08
0.644	5.1274E-08
0.656	5.2229E-08
0.706	5.6210E-08
1.060	8.4394E-08
1.530	1.2181E-07
1.970	7.8580E-07
2.325	1.7449E-05
2.500	5.3293E-05
