Material: hikari / SiO2 / NIFS-V
Optical constants. NIKON Zemax catalog 2017-11 (obtained from http://www.nikon.com)See also NIKON synthetic silica glass data sheet
Comments: TCE value is available for 25 to 300 degrees Celsius.
Specs: {"n_absolute": false, "wavelength_vacuum": false, "temperature": "22.5 °C", "thermal_dispersion": [{"type": "Schott formula", "coefficients": "2.21e-05 3e-08 -1.14e-12 2.52e-07 4.92e-10 0.235"}], "nd": 1.458564, "Vd": 67.859016, "density": "2.2 g/cm3", "thermal_expansion": [{"temperature_range": "-30 70 °C", "coefficient": "6.3e-07 K-1"}], "dPgF": -0.002, "climatic_resistance": 1.0, "stain_resistance": 0.0, "acid_resistance": 1.0, "alkali_resistance": 1.0, "phosphate_resistance": 1.0}
Dispersion formula 2, range 0.18489 2.32542 um, coefficients 0 0.640349086 0.004253794 0.374308316 0.012779842 0.089750539 0.014004437 0.908924481 99.3231891
wavelength (um)	k
0.157	1.2660E-05
0.184	1.4650E-08
0.193	1.5366E-08
0.229	1.8232E-08
0.248	1.9745E-08
0.260	2.0700E-08
0.270	2.1497E-08
0.280	2.2293E-08
0.290	2.3089E-08
0.297	2.3646E-08
0.313	2.4920E-08
0.320	2.5478E-08
0.334	2.6592E-08
0.365	2.9060E-08
0.370	2.9458E-08
0.370	2.9458E-08
0.380	3.0255E-08
0.390	3.1051E-08
0.400	3.1847E-08
0.405	3.2245E-08
0.420	3.3439E-08
0.436	3.4713E-08
0.460	3.6624E-08
0.480	3.8216E-08
0.500	3.9809E-08
0.546	4.3471E-08
0.589	4.6895E-08
0.632	5.0318E-08
0.644	5.1274E-08
0.656	5.2229E-08
0.706	5.6210E-08
1.060	8.4394E-08
1.530	1.2181E-07
1.970	1.5685E-07
2.325	1.8511E-07
2.500	1.9995E-06
