Material: glass / soda_lime_generic / Vogt-5ppm
Optical constants. 1) M. R. Vogt, H. Hahn, H. Holst, M. Winter, C. Schinke, M. Köntges, R. Brendel, P. P. Altermatt, Measurement of the optical constants of soda-lime glasses in dependence of iron content, and modeling of iron-related power losses in crystalline Si solar cell modules, IEEE J. Photovolt. 6, 111-118 (2016)2) M. R. Vogt. Development of physical models for the simulation of optical properties of solar cell modules, PhD. Thesis (2015)(Numerical data kindly provided by Malte Vogt)
Comments: Fe2O3 content 0.005‰ (5 ppm). Room temperature.
wavelength (um)	n	k
0.30	1.557	4.12E-06
0.31	1.553	3.14E-06
0.32	1.549	1.80E-06
0.33	1.546	7.96E-07
0.34	1.543	2.98E-07
0.35	1.540	1.12E-07
0.36	1.538	5.84E-08
0.37	1.536	4.58E-08
0.38	1.534	4.32E-08
0.39	1.532	3.73E-08
0.40	1.530	2.82E-08
0.41	1.529	2.33E-08
0.42	1.527	2.26E-08
0.43	1.526	2.40E-08
0.44	1.525	2.49E-08
0.45	1.524	2.44E-08
0.46	1.523	2.35E-08
0.47	1.522	2.14E-08
0.48	1.521	1.86E-08
0.49	1.520	1.70E-08
0.50	1.519	1.68E-08
0.51	1.518	1.68E-08
0.52	1.518	1.69E-08
0.53	1.517	1.67E-08
0.54	1.516	1.66E-08
0.55	1.516	1.73E-08
0.56	1.515	1.89E-08
0.57	1.515	2.21E-08
0.58	1.514	2.52E-08
0.59	1.514	2.71E-08
0.60	1.513	2.89E-08
0.61	1.513	3.18E-08
0.62	1.512	3.51E-08
0.63	1.512	3.82E-08
0.64	1.512	4.11E-08
0.65	1.511	4.64E-08
0.66	1.511	5.23E-08
0.67	1.511	5.55E-08
0.68	1.510	5.84E-08
0.69	1.510	6.31E-08
0.70	1.510	6.93E-08
0.71	1.510	7.47E-08
0.72	1.509	7.89E-08
0.73	1.509	8.60E-08
0.74	1.509	9.39E-08
0.75	1.509	1.00E-07
0.76	1.508	1.07E-07
0.77	1.508	1.14E-07
0.78	1.508	1.22E-07
0.79	1.508	1.29E-07
0.80	1.508	1.34E-07
0.81	1.507	1.41E-07
0.82	1.507	1.49E-07
0.83	1.507	1.56E-07
0.84	1.507	1.63E-07
0.85	1.507	1.69E-07
0.86	1.507	1.76E-07
0.87	1.507	1.83E-07
0.88	1.506	1.88E-07
0.89	1.506	1.94E-07
0.90	1.506	1.99E-07
0.91	1.506	2.04E-07
0.92	1.506	2.09E-07
0.93	1.506	2.13E-07
0.94	1.506	2.18E-07
0.95	1.506	2.22E-07
0.96	1.506	2.25E-07
0.97	1.505	2.29E-07
0.98	1.505	2.33E-07
0.99	1.505	2.35E-07
1.00	1.505	2.39E-07
1.01	1.505	2.42E-07
1.02	1.505	2.46E-07
1.03	1.505	2.50E-07
1.04	1.505	2.53E-07
1.05	1.505	2.56E-07
1.06	1.505	2.59E-07
1.07	1.505	2.62E-07
1.08	1.504	2.64E-07
1.09	1.504	2.66E-07
1.10	1.504	2.68E-07
1.11	1.504	2.69E-07
1.12	1.504	2.71E-07
1.13	1.504	2.72E-07
1.14	1.504	2.74E-07
1.15	1.504	2.75E-07
1.16	1.504	2.76E-07
1.17	1.504	2.77E-07
1.18	1.504	2.77E-07
1.19	1.504	2.77E-07
1.20	1.504	2.77E-07
1.21	1.504	2.77E-07
1.22	1.504	2.77E-07
1.23	1.504	2.76E-07
1.24	1.504	2.75E-07
1.25	1.504	2.74E-07
1.26	1.503	2.73E-07
1.27	1.503	2.72E-07
1.28	1.503	2.70E-07
1.29	1.503	2.69E-07
1.30	1.503	2.67E-07
1.31	1.503	2.65E-07
1.32	1.503	2.63E-07
1.33	1.503	2.61E-07
1.34	1.503	2.59E-07
1.35	1.503	2.57E-07
1.36	1.503	2.55E-07
1.37	1.503	2.52E-07
1.38	1.503	2.50E-07
1.39	1.503	2.48E-07
1.40	1.503	2.46E-07
1.41	1.503	2.43E-07
1.42	1.503	2.40E-07
1.43	1.503	2.37E-07
1.44	1.503	2.33E-07
1.45	1.503	2.30E-07
1.46	1.503	2.26E-07
1.47	1.503	2.22E-07
1.48	1.503	2.19E-07
1.49	1.503	2.15E-07
1.50	1.503	2.13E-07
1.51	1.503	2.10E-07
1.52	1.503	2.08E-07
1.53	1.503	2.05E-07
1.54	1.503	2.03E-07
1.55	1.503	2.01E-07
1.56	1.502	1.97E-07
1.57	1.502	1.94E-07
1.58	1.502	1.91E-07
1.59	1.502	1.88E-07
1.60	1.502	1.86E-07
1.61	1.502	1.83E-07
1.62	1.502	1.81E-07
1.63	1.502	1.80E-07
1.64	1.502	1.80E-07
1.65	1.502	1.81E-07
1.66	1.502	1.85E-07
1.67	1.502	1.89E-07
1.68	1.502	1.94E-07
1.69	1.502	2.00E-07
