Material: glass / soda_lime_generic / Vogt-703ppm
Optical constants. 1) M. R. Vogt, H. Hahn, H. Holst, M. Winter, C. Schinke, M. Köntges, R. Brendel, P. P. Altermatt, Measurement of the optical constants of soda-lime glasses in dependence of iron content, and modeling of iron-related power losses in crystalline Si solar cell modules, IEEE J. Photovolt. 6, 111-118 (2016)2) M. R. Vogt. Development of physical models for the simulation of optical properties of solar cell modules, PhD. Thesis (2015)
Comments: Fe2O3 content 0.703‰ (703 ppm). Room temperature.
wavelength (um)	n	k
0.30	1.557	5.79E-05
0.31	1.553	4.42E-05
0.32	1.549	2.53E-05
0.33	1.546	1.12E-05
0.34	1.543	4.19E-06
0.35	1.540	1.58E-06
0.36	1.538	8.22E-07
0.37	1.536	6.44E-07
0.38	1.534	6.07E-07
0.39	1.532	5.24E-07
0.40	1.530	3.96E-07
0.41	1.529	3.28E-07
0.42	1.527	3.18E-07
0.43	1.526	3.38E-07
0.44	1.525	3.50E-07
0.45	1.524	3.43E-07
0.46	1.523	3.30E-07
0.47	1.522	3.01E-07
0.48	1.521	2.62E-07
0.49	1.520	2.39E-07
0.50	1.519	2.36E-07
0.51	1.518	2.36E-07
0.52	1.518	2.37E-07
0.53	1.517	2.35E-07
0.54	1.516	2.33E-07
0.55	1.516	2.43E-07
0.56	1.515	2.66E-07
0.57	1.515	3.11E-07
0.58	1.514	3.55E-07
0.59	1.514	3.81E-07
0.60	1.513	4.06E-07
0.61	1.513	4.47E-07
0.62	1.512	4.94E-07
0.63	1.512	5.37E-07
0.64	1.512	5.78E-07
0.65	1.511	6.52E-07
0.66	1.511	7.35E-07
0.67	1.511	7.80E-07
0.68	1.510	8.21E-07
0.69	1.510	8.88E-07
0.70	1.510	9.75E-07
0.71	1.510	1.05E-06
0.72	1.509	1.11E-06
0.73	1.509	1.21E-06
0.74	1.509	1.32E-06
0.75	1.509	1.41E-06
0.76	1.508	1.50E-06
0.77	1.508	1.61E-06
0.78	1.508	1.72E-06
0.79	1.508	1.81E-06
0.80	1.508	1.89E-06
0.81	1.507	1.99E-06
0.82	1.507	2.09E-06
0.83	1.507	2.19E-06
0.84	1.507	2.29E-06
0.85	1.507	2.38E-06
0.86	1.507	2.48E-06
0.87	1.507	2.57E-06
0.88	1.506	2.65E-06
0.89	1.506	2.73E-06
0.90	1.506	2.80E-06
0.91	1.506	2.87E-06
0.92	1.506	2.94E-06
0.93	1.506	3.00E-06
0.94	1.506	3.06E-06
0.95	1.506	3.12E-06
0.96	1.506	3.17E-06
0.97	1.505	3.22E-06
0.98	1.505	3.27E-06
0.99	1.505	3.31E-06
1.00	1.505	3.36E-06
1.01	1.505	3.41E-06
1.02	1.505	3.46E-06
1.03	1.505	3.51E-06
1.04	1.505	3.56E-06
1.05	1.505	3.60E-06
1.06	1.505	3.64E-06
1.07	1.505	3.68E-06
1.08	1.504	3.71E-06
1.09	1.504	3.74E-06
1.10	1.504	3.77E-06
1.11	1.504	3.79E-06
1.12	1.504	3.81E-06
1.13	1.504	3.83E-06
1.14	1.504	3.85E-06
1.15	1.504	3.87E-06
1.16	1.504	3.88E-06
1.17	1.504	3.89E-06
1.18	1.504	3.90E-06
1.19	1.504	3.90E-06
1.20	1.504	3.90E-06
1.21	1.504	3.90E-06
1.22	1.504	3.89E-06
1.23	1.504	3.88E-06
1.24	1.504	3.87E-06
1.25	1.504	3.85E-06
1.26	1.503	3.84E-06
1.27	1.503	3.82E-06
1.28	1.503	3.80E-06
1.29	1.503	3.78E-06
1.30	1.503	3.75E-06
1.31	1.503	3.73E-06
1.32	1.503	3.70E-06
1.33	1.503	3.67E-06
1.34	1.503	3.64E-06
1.35	1.503	3.61E-06
1.36	1.503	3.58E-06
1.37	1.503	3.55E-06
1.38	1.503	3.52E-06
1.39	1.503	3.49E-06
1.40	1.503	3.46E-06
1.41	1.503	3.42E-06
1.42	1.503	3.38E-06
1.43	1.503	3.33E-06
1.44	1.503	3.28E-06
1.45	1.503	3.23E-06
1.46	1.503	3.18E-06
1.47	1.503	3.12E-06
1.48	1.503	3.08E-06
1.49	1.503	3.03E-06
1.50	1.503	2.99E-06
1.51	1.503	2.95E-06
1.52	1.503	2.92E-06
1.53	1.503	2.89E-06
1.54	1.503	2.85E-06
1.55	1.503	2.82E-06
1.56	1.502	2.77E-06
1.57	1.502	2.73E-06
1.58	1.502	2.69E-06
1.59	1.502	2.65E-06
1.60	1.502	2.61E-06
1.61	1.502	2.57E-06
1.62	1.502	2.55E-06
1.63	1.502	2.53E-06
1.64	1.502	2.53E-06
1.65	1.502	2.55E-06
1.66	1.502	2.60E-06
1.67	1.502	2.66E-06
1.68	1.502	2.73E-06
1.69	1.502	2.81E-06
