Material: inorganic / TaSe2 / Munkhbat-e
Optical constants. B. Munkhbat, P. Wrobel, T. J. Antosiewicz, T. O. Shegai. Optical constants of several multilayer transition metal dichalcogenides spectroscopic ellipsometry in the 300–1700 nm range: High index, anisotropy, and hyperbolicity, ACS Photonics 9, 2398–2407 (2022) (Numerical data kindly provided by Tomasz Antosiewicz)
Comments: Multilayer flakes. Out-of-plane (extraordinary ray, e). Room temperature.
Specs: {"n_absolute": true, "wavelength_vacuum": true}
wavelength (um)	n	k
3.000000e-01	3.096724e+00	2.099160e-01
3.030000e-01	3.072900e+00	1.988249e-01
3.060000e-01	3.049930e+00	1.890675e-01
3.090000e-01	3.027799e+00	1.805202e-01
3.120000e-01	3.006488e+00	1.730727e-01
3.150000e-01	2.985976e+00	1.666262e-01
3.180000e-01	2.966241e+00	1.610925e-01
3.210000e-01	2.947259e+00	1.563923e-01
3.240000e-01	2.929009e+00	1.524545e-01
3.270000e-01	2.911466e+00	1.492153e-01
3.300000e-01	2.894611e+00	1.466168e-01
3.330000e-01	2.878421e+00	1.446072e-01
3.360000e-01	2.862877e+00	1.431393e-01
3.390000e-01	2.847961e+00	1.421704e-01
3.420000e-01	2.833655e+00	1.416618e-01
3.450000e-01	2.819945e+00	1.415781e-01
3.480000e-01	2.806818e+00	1.418871e-01
3.510000e-01	2.794262e+00	1.425591e-01
3.540000e-01	2.782271e+00	1.435668e-01
3.570000e-01	2.770843e+00	1.448851e-01
3.600000e-01	2.759982e+00	1.464902e-01
3.630000e-01	2.749709e+00	1.483593e-01
3.660000e-01	2.740112e+00	1.504249e-01
3.690000e-01	2.731128e+00	1.524809e-01
3.720000e-01	2.722625e+00	1.545076e-01
3.750000e-01	2.714539e+00	1.565070e-01
3.780000e-01	2.706827e+00	1.584807e-01
3.810000e-01	2.699453e+00	1.604294e-01
3.840000e-01	2.692389e+00	1.623540e-01
3.870000e-01	2.685611e+00	1.642550e-01
3.900000e-01	2.679097e+00	1.661328e-01
3.930000e-01	2.672829e+00	1.679881e-01
3.960000e-01	2.666788e+00	1.698210e-01
3.990000e-01	2.660962e+00	1.716321e-01
4.020000e-01	2.655334e+00	1.734216e-01
4.050000e-01	2.649894e+00	1.751899e-01
4.080000e-01	2.644630e+00	1.769372e-01
4.110000e-01	2.639530e+00	1.786639e-01
4.140000e-01	2.634586e+00	1.803702e-01
4.170000e-01	2.629789e+00	1.820565e-01
4.200000e-01	2.625129e+00	1.837230e-01
4.230000e-01	2.620599e+00	1.853700e-01
4.260000e-01	2.616193e+00	1.869979e-01
4.290000e-01	2.611902e+00	1.886069e-01
4.320000e-01	2.607721e+00	1.901973e-01
4.350000e-01	2.603643e+00	1.917694e-01
4.380000e-01	2.599663e+00	1.933235e-01
4.410000e-01	2.595776e+00	1.948600e-01
4.440000e-01	2.591976e+00	1.963792e-01
4.470000e-01	2.588259e+00	1.978814e-01
4.500000e-01	2.584620e+00	1.993668e-01
4.530000e-01	2.581055e+00	2.008360e-01
4.560000e-01	2.577560e+00	2.022891e-01
4.590000e-01	2.574131e+00	2.037266e-01
4.620000e-01	2.570765e+00	2.051487e-01
4.650000e-01	2.567457e+00	2.065560e-01
4.680000e-01	2.564205e+00	2.079486e-01
4.710000e-01	2.561005e+00	2.093270e-01
4.740000e-01	2.557854e+00	2.106916e-01
4.770000e-01	2.554750e+00	2.120427e-01
4.800000e-01	2.551690e+00	2.133808e-01
4.830000e-01	2.548671e+00	2.147061e-01
4.860000e-01	2.545690e+00	2.160191e-01
4.890000e-01	2.542746e+00	2.173203e-01
4.920000e-01	2.539835e+00	2.186099e-01
4.950000e-01	2.536956e+00	2.198885e-01
4.980000e-01	2.534106e+00	2.211563e-01
5.010000e-01	2.531284e+00	2.224139e-01
5.040000e-01	2.528487e+00	2.236616e-01
5.070000e-01	2.525714e+00	2.248999e-01
5.100000e-01	2.522962e+00	2.261292e-01
5.130000e-01	2.520231e+00	2.273499e-01
5.160000e-01	2.517518e+00	2.285625e-01
5.190000e-01	2.514822e+00	2.297674e-01
5.220000e-01	2.512140e+00	2.309650e-01
5.250000e-01	2.509473e+00	2.321557e-01
5.280000e-01	2.506818e+00	2.333401e-01
5.310000e-01	2.504173e+00	2.345185e-01
5.340000e-01	2.501538e+00	2.356915e-01
5.370000e-01	2.498911e+00	2.368594e-01
5.400000e-01	2.496292e+00	2.380228e-01
5.430000e-01	2.493678e+00	2.391820e-01
5.460000e-01	2.491068e+00	2.403376e-01
5.490000e-01	2.488462e+00	2.414900e-01
5.520000e-01	2.485858e+00	2.426396e-01
5.550000e-01	2.483256e+00	2.437870e-01
5.580000e-01	2.480654e+00	2.449327e-01
5.610000e-01	2.478051e+00	2.460770e-01
5.640000e-01	2.475447e+00	2.472205e-01
5.670000e-01	2.472840e+00	2.483636e-01
5.700000e-01	2.470229e+00	2.495069e-01
5.730000e-01	2.467614e+00	2.506507e-01
5.760000e-01	2.464995e+00	2.517957e-01
5.790000e-01	2.462369e+00	2.529422e-01
5.820000e-01	2.459736e+00	2.540909e-01
5.850000e-01	2.457096e+00	2.552421e-01
5.880000e-01	2.454448e+00	2.563963e-01
5.910000e-01	2.451790e+00	2.575542e-01
5.940000e-01	2.449123e+00	2.587160e-01
5.970000e-01	2.446446e+00	2.598825e-01
6.000000e-01	2.443758e+00	2.610540e-01
6.030000e-01	2.441058e+00	2.622311e-01
6.060000e-01	2.438346e+00	2.634143e-01
6.090000e-01	2.435622e+00	2.646041e-01
6.120000e-01	2.432883e+00	2.658011e-01
6.150000e-01	2.430131e+00	2.670056e-01
6.180000e-01	2.427365e+00	2.682184e-01
6.210000e-01	2.424583e+00	2.694398e-01
6.240000e-01	2.421786e+00	2.706705e-01
6.270000e-01	2.418973e+00	2.719109e-01
6.300000e-01	2.416143e+00	2.731617e-01
6.330000e-01	2.413297e+00	2.744232e-01
6.360000e-01	2.410433e+00	2.756961e-01
6.390000e-01	2.407551e+00	2.769810e-01
6.420000e-01	2.404651e+00	2.782783e-01
6.450000e-01	2.401732e+00	2.795887e-01
6.480000e-01	2.398794e+00	2.809127e-01
6.510000e-01	2.395837e+00	2.822508e-01
6.540000e-01	2.392859e+00	2.836036e-01
6.570000e-01	2.389862e+00	2.849718e-01
6.600000e-01	2.386843e+00	2.863558e-01
6.630000e-01	2.383804e+00	2.877563e-01
6.660000e-01	2.380744e+00	2.891738e-01
6.690000e-01	2.377662e+00	2.906090e-01
6.720000e-01	2.374558e+00	2.920625e-01
6.750000e-01	2.371431e+00	2.935347e-01
6.780000e-01	2.368282e+00	2.950265e-01
6.810000e-01	2.365111e+00	2.965383e-01
6.840000e-01	2.361916e+00	2.980708e-01
6.870000e-01	2.358698e+00	2.996246e-01
6.900000e-01	2.355456e+00	3.012005e-01
6.930000e-01	2.352190e+00	3.027989e-01
6.960000e-01	2.348900e+00	3.044205e-01
6.990000e-01	2.345586e+00	3.060661e-01
7.020000e-01	2.342247e+00	3.077363e-01
7.050000e-01	2.338883e+00	3.094317e-01
7.080000e-01	2.335494e+00	3.111530e-01
7.110000e-01	2.332080e+00	3.129009e-01
7.140000e-01	2.328640e+00	3.146762e-01
7.170000e-01	2.325175e+00	3.164795e-01
7.200000e-01	2.321684e+00	3.183115e-01
7.230000e-01	2.318167e+00	3.201730e-01
7.260000e-01	2.314624e+00	3.220646e-01
7.290000e-01	2.311054e+00	3.239872e-01
7.320000e-01	2.307459e+00	3.259415e-01
7.350000e-01	2.303836e+00	3.279282e-01
7.380000e-01	2.300187e+00	3.299482e-01
7.410000e-01	2.296512e+00	3.320021e-01
7.440000e-01	2.292809e+00	3.340909e-01
7.470000e-01	2.289079e+00	3.362152e-01
7.500000e-01	2.285323e+00	3.383760e-01
7.530000e-01	2.281539e+00	3.405740e-01
7.560000e-01	2.277728e+00	3.428101e-01
7.590000e-01	2.273890e+00	3.450851e-01
7.620000e-01	2.270025e+00	3.474000e-01
7.650000e-01	2.266132e+00	3.497556e-01
7.680000e-01	2.262212e+00	3.521527e-01
7.710000e-01	2.258264e+00	3.545924e-01
7.740000e-01	2.254289e+00	3.570754e-01
7.770000e-01	2.250287e+00	3.596028e-01
7.800000e-01	2.246258e+00	3.621755e-01
7.830000e-01	2.242202e+00	3.647944e-01
7.860000e-01	2.238118e+00	3.674606e-01
7.890000e-01	2.234007e+00	3.701751e-01
7.920000e-01	2.229869e+00	3.729387e-01
7.950000e-01	2.225704e+00	3.757527e-01
7.980000e-01	2.221513e+00	3.786179e-01
8.010000e-01	2.217295e+00	3.815356e-01
8.040000e-01	2.213050e+00	3.845067e-01
8.070000e-01	2.208779e+00	3.875323e-01
8.100000e-01	2.204482e+00	3.906136e-01
8.130000e-01	2.200159e+00	3.937516e-01
8.160000e-01	2.195810e+00	3.969476e-01
8.190000e-01	2.191436e+00	4.002027e-01
8.220000e-01	2.187036e+00	4.035181e-01
8.250000e-01	2.182612e+00	4.068949e-01
8.280000e-01	2.178163e+00	4.103345e-01
8.310000e-01	2.173690e+00	4.138380e-01
8.340000e-01	2.169193e+00	4.174066e-01
8.370000e-01	2.164672e+00	4.210418e-01
8.400000e-01	2.160129e+00	4.247447e-01
8.430000e-01	2.155562e+00	4.285167e-01
8.460000e-01	2.150974e+00	4.323591e-01
8.490000e-01	2.146364e+00	4.362733e-01
8.520000e-01	2.141733e+00	4.402606e-01
8.550000e-01	2.137081e+00	4.443225e-01
8.580000e-01	2.132410e+00	4.484603e-01
8.610000e-01	2.127719e+00	4.526755e-01
8.640000e-01	2.123009e+00	4.569695e-01
8.670000e-01	2.118282e+00	4.613439e-01
8.700000e-01	2.113537e+00	4.658000e-01
8.730000e-01	2.108776e+00	4.703394e-01
8.760000e-01	2.104000e+00	4.749637e-01
8.790000e-01	2.099209e+00	4.796743e-01
8.820000e-01	2.094404e+00	4.844728e-01
8.850000e-01	2.089587e+00	4.893609e-01
8.880000e-01	2.084758e+00	4.943400e-01
8.910000e-01	2.079918e+00	4.994118e-01
8.940000e-01	2.075069e+00	5.045779e-01
8.970000e-01	2.070211e+00	5.098399e-01
9.000000e-01	2.065347e+00	5.151995e-01
9.030000e-01	2.060477e+00	5.206583e-01
9.060000e-01	2.055602e+00	5.262181e-01
9.090000e-01	2.050724e+00	5.318804e-01
9.120000e-01	2.045845e+00	5.376469e-01
9.150000e-01	2.040966e+00	5.435194e-01
9.180000e-01	2.036089e+00	5.494995e-01
9.210000e-01	2.031215e+00	5.555889e-01
9.240000e-01	2.026346e+00	5.617893e-01
9.270000e-01	2.021484e+00	5.681023e-01
9.300000e-01	2.016631e+00	5.745298e-01
9.330000e-01	2.011789e+00	5.810732e-01
9.360000e-01	2.006959e+00	5.877344e-01
9.390000e-01	2.002145e+00	5.945149e-01
9.420000e-01	1.997349e+00	6.014164e-01
9.450000e-01	1.992571e+00	6.084405e-01
9.480000e-01	1.987816e+00	6.155888e-01
9.510000e-01	1.983086e+00	6.228629e-01
9.540000e-01	1.978382e+00	6.302644e-01
9.570000e-01	1.973708e+00	6.377946e-01
9.600000e-01	1.969067e+00	6.454552e-01
9.630000e-01	1.964461e+00	6.532476e-01
9.660000e-01	1.959894e+00	6.611731e-01
9.690000e-01	1.955367e+00	6.692331e-01
9.720000e-01	1.950886e+00	6.774289e-01
9.750000e-01	1.946451e+00	6.857618e-01
9.780000e-01	1.942068e+00	6.942328e-01
9.810000e-01	1.937739e+00	7.028432e-01
9.840000e-01	1.933468e+00	7.115940e-01
9.870000e-01	1.929259e+00	7.204860e-01
9.900000e-01	1.925114e+00	7.295203e-01
9.930000e-01	1.921038e+00	7.386977e-01
9.960000e-01	1.917035e+00	7.480187e-01
9.990000e-01	1.913109e+00	7.574841e-01
1.005000e+00	1.905502e+00	7.768498e-01
1.012500e+00	1.896497e+00	8.018758e-01
1.020000e+00	1.888115e+00	8.278127e-01
1.027500e+00	1.880425e+00	8.546572e-01
1.035000e+00	1.873498e+00	8.824004e-01
1.042500e+00	1.867408e+00	9.110283e-01
1.050000e+00	1.862227e+00	9.405207e-01
1.057500e+00	1.858031e+00	9.708514e-01
1.065000e+00	1.854892e+00	1.001989e+00
1.072500e+00	1.852885e+00	1.033894e+00
1.080000e+00	1.852080e+00	1.066524e+00
1.087500e+00	1.852548e+00	1.099829e+00
1.095000e+00	1.854356e+00	1.133753e+00
1.102500e+00	1.857568e+00	1.168237e+00
1.110000e+00	1.862246e+00	1.203217e+00
1.117500e+00	1.868448e+00	1.238622e+00
1.125000e+00	1.876229e+00	1.274380e+00
1.132500e+00	1.885642e+00	1.310413e+00
1.140000e+00	1.896734e+00	1.346642e+00
1.147500e+00	1.909550e+00	1.382981e+00
1.155000e+00	1.924132e+00	1.419342e+00
1.162500e+00	1.940518e+00	1.455636e+00
1.170000e+00	1.958743e+00	1.491767e+00
1.177500e+00	1.978840e+00	1.527636e+00
1.185000e+00	2.000837e+00	1.563141e+00
1.192500e+00	2.024757e+00	1.598174e+00
1.200000e+00	2.050623e+00	1.632624e+00
1.207500e+00	2.078450e+00	1.666374e+00
1.215000e+00	2.108249e+00	1.699301e+00
1.222500e+00	2.140026e+00	1.731277e+00
1.230000e+00	2.173778e+00	1.762168e+00
1.237500e+00	2.209497e+00	1.791834e+00
1.245000e+00	2.247163e+00	1.820129e+00
1.252500e+00	2.286747e+00	1.846901e+00
1.260000e+00	2.328208e+00	1.871992e+00
1.267500e+00	2.371492e+00	1.895241e+00
1.275000e+00	2.416529e+00	1.916482e+00
1.282500e+00	2.463233e+00	1.935547e+00
1.290000e+00	2.511499e+00	1.952269e+00
1.297500e+00	2.561203e+00	1.966480e+00
1.305000e+00	2.612201e+00	1.978018e+00
1.312500e+00	2.664326e+00	1.986728e+00
1.320000e+00	2.717391e+00	1.992464e+00
1.327500e+00	2.771185e+00	1.995096e+00
1.335000e+00	2.825479e+00	1.994511e+00
1.342500e+00	2.880023e+00	1.990615e+00
1.350000e+00	2.934551e+00	1.983341e+00
1.357500e+00	2.988782e+00	1.972651e+00
1.365000e+00	3.042427e+00	1.958537e+00
1.372500e+00	3.095188e+00	1.941025e+00
1.380000e+00	3.146770e+00	1.920178e+00
1.387500e+00	3.196883e+00	1.896092e+00
1.395000e+00	3.245246e+00	1.868900e+00
1.402500e+00	3.291595e+00	1.838768e+00
1.410000e+00	3.335687e+00	1.805894e+00
1.417500e+00	3.377308e+00	1.770501e+00
1.425000e+00	3.416270e+00	1.732837e+00
1.432500e+00	3.452421e+00	1.693167e+00
1.440000e+00	3.485643e+00	1.651768e+00
1.447500e+00	3.515854e+00	1.608925e+00
1.455000e+00	3.543006e+00	1.564920e+00
1.462500e+00	3.567087e+00	1.520035e+00
1.470000e+00	3.588114e+00	1.474540e+00
1.477500e+00	3.606137e+00	1.428693e+00
1.485000e+00	3.621229e+00	1.382736e+00
1.492500e+00	3.633484e+00	1.336891e+00
1.500000e+00	3.643016e+00	1.291360e+00
1.507500e+00	3.649953e+00	1.246323e+00
1.515000e+00	3.654433e+00	1.201938e+00
1.522500e+00	3.656601e+00	1.158341e+00
1.530000e+00	3.656606e+00	1.115647e+00
1.537500e+00	3.654600e+00	1.073951e+00
1.545000e+00	3.650733e+00	1.033330e+00
1.552500e+00	3.645151e+00	9.938429e-01
1.560000e+00	3.637997e+00	9.555331e-01
1.567500e+00	3.629408e+00	9.184307e-01
1.575000e+00	3.619516e+00	8.825533e-01
1.582500e+00	3.608442e+00	8.479079e-01
1.590000e+00	3.596304e+00	8.144923e-01
1.597500e+00	3.583209e+00	7.822968e-01
1.605000e+00	3.569257e+00	7.513050e-01
1.612500e+00	3.554543e+00	7.214954e-01
1.620000e+00	3.539151e+00	6.928421e-01
1.627500e+00	3.523160e+00	6.653159e-01
1.635000e+00	3.506641e+00	6.388848e-01
1.642500e+00	3.489660e+00	6.135154e-01
1.650000e+00	3.472276e+00	5.891725e-01
1.657500e+00	3.454542e+00	5.658205e-01
1.665000e+00	3.436507e+00	5.434230e-01
1.672500e+00	3.418215e+00	5.219440e-01
1.680000e+00	3.399704e+00	5.013475e-01
1.687500e+00	3.381009e+00	4.815979e-01
