Material: inorganic / TaSe2 / Munkhbat-o
Optical constants. B. Munkhbat, P. Wrobel, T. J. Antosiewicz, T. O. Shegai. Optical constants of several multilayer transition metal dichalcogenides spectroscopic ellipsometry in the 300–1700 nm range: High index, anisotropy, and hyperbolicity, ACS Photonics 9, 2398–2407 (2022) (Numerical data kindly provided by Tomasz Antosiewicz)
Comments: Multilayer flakes. In-plane (ordinary ray, o). Room temperature.
Specs: {"n_absolute": true, "wavelength_vacuum": true}
wavelength (um)	n	k
3.000000e-01	3.345052e+00	1.762534e+00
3.030000e-01	3.374268e+00	1.701359e+00
3.060000e-01	3.390598e+00	1.632849e+00
3.090000e-01	3.391875e+00	1.564019e+00
3.120000e-01	3.380298e+00	1.500783e+00
3.150000e-01	3.359913e+00	1.446157e+00
3.180000e-01	3.334530e+00	1.400724e+00
3.210000e-01	3.306915e+00	1.363767e+00
3.240000e-01	3.278822e+00	1.334126e+00
3.270000e-01	3.251262e+00	1.310640e+00
3.300000e-01	3.224786e+00	1.292314e+00
3.330000e-01	3.199674e+00	1.278352e+00
3.360000e-01	3.176062e+00	1.268141e+00
3.390000e-01	3.154019e+00	1.261208e+00
3.420000e-01	3.133589e+00	1.257193e+00
3.450000e-01	3.114815e+00	1.255816e+00
3.480000e-01	3.097757e+00	1.256850e+00
3.510000e-01	3.082491e+00	1.260100e+00
3.540000e-01	3.069121e+00	1.265391e+00
3.570000e-01	3.057770e+00	1.272543e+00
3.600000e-01	3.048582e+00	1.281363e+00
3.630000e-01	3.041709e+00	1.291636e+00
3.660000e-01	3.037309e+00	1.303106e+00
3.690000e-01	3.035523e+00	1.315477e+00
3.720000e-01	3.036469e+00	1.328407e+00
3.750000e-01	3.040217e+00	1.341509e+00
3.780000e-01	3.046777e+00	1.354359e+00
3.810000e-01	3.056074e+00	1.366511e+00
3.840000e-01	3.067946e+00	1.377520e+00
3.870000e-01	3.082129e+00	1.386965e+00
3.900000e-01	3.098266e+00	1.394482e+00
3.930000e-01	3.115917e+00	1.399790e+00
3.960000e-01	3.134588e+00	1.402719e+00
3.990000e-01	3.153761e+00	1.403225e+00
4.020000e-01	3.172932e+00	1.401392e+00
4.050000e-01	3.191648e+00	1.397423e+00
4.080000e-01	3.209542e+00	1.391623e+00
4.110000e-01	3.226352e+00	1.384364e+00
4.140000e-01	3.241940e+00	1.376054e+00
4.170000e-01	3.256286e+00	1.367097e+00
4.200000e-01	3.269485e+00	1.357862e+00
4.230000e-01	3.281726e+00	1.348656e+00
4.260000e-01	3.293268e+00	1.339697e+00
4.290000e-01	3.304413e+00	1.331104e+00
4.320000e-01	3.315475e+00	1.322893e+00
4.350000e-01	3.326751e+00	1.314971e+00
4.380000e-01	3.338489e+00	1.307150e+00
4.410000e-01	3.350863e+00	1.299166e+00
4.440000e-01	3.363947e+00	1.290702e+00
4.470000e-01	3.377706e+00	1.281420e+00
4.500000e-01	3.391991e+00	1.271001e+00
4.530000e-01	3.406546e+00	1.259178e+00
4.560000e-01	3.421035e+00	1.245772e+00
4.590000e-01	3.435068e+00	1.230715e+00
4.620000e-01	3.448247e+00	1.214060e+00
4.650000e-01	3.460201e+00	1.195977e+00
4.680000e-01	3.470622e+00	1.176738e+00
4.710000e-01	3.479292e+00	1.156687e+00
4.740000e-01	3.486095e+00	1.136215e+00
4.770000e-01	3.491024e+00	1.115721e+00
4.800000e-01	3.494176e+00	1.095589e+00
4.830000e-01	3.495739e+00	1.076163e+00
4.860000e-01	3.495981e+00	1.057725e+00
4.890000e-01	3.495234e+00	1.040484e+00
4.920000e-01	3.493879e+00	1.024560e+00
4.950000e-01	3.492325e+00	1.009966e+00
4.980000e-01	3.490989e+00	9.966004e-01
5.010000e-01	3.490263e+00	9.842320e-01
5.040000e-01	3.490467e+00	9.724967e-01
5.070000e-01	3.491797e+00	9.609126e-01
5.100000e-01	3.494270e+00	9.489229e-01
5.130000e-01	3.497685e+00	9.359694e-01
5.160000e-01	3.501625e+00	9.215896e-01
5.190000e-01	3.505507e+00	9.055123e-01
5.220000e-01	3.508681e+00	8.877183e-01
5.250000e-01	3.510552e+00	8.684415e-01
5.280000e-01	3.510681e+00	8.481090e-01
5.310000e-01	3.508833e+00	8.272449e-01
5.340000e-01	3.504980e+00	8.063726e-01
5.370000e-01	3.499254e+00	7.859421e-01
5.400000e-01	3.491891e+00	7.662936e-01
5.430000e-01	3.483170e+00	7.476514e-01
5.460000e-01	3.473376e+00	7.301380e-01
5.490000e-01	3.462770e+00	7.137963e-01
5.520000e-01	3.451576e+00	6.986136e-01
5.550000e-01	3.439981e+00	6.845409e-01
5.580000e-01	3.428133e+00	6.715091e-01
5.610000e-01	3.416146e+00	6.594391e-01
5.640000e-01	3.404109e+00	6.482499e-01
5.670000e-01	3.392087e+00	6.378625e-01
5.700000e-01	3.380126e+00	6.282026e-01
5.730000e-01	3.368262e+00	6.192019e-01
5.760000e-01	3.356516e+00	6.107985e-01
5.790000e-01	3.344905e+00	6.029368e-01
5.820000e-01	3.333439e+00	5.955672e-01
5.850000e-01	3.322121e+00	5.886455e-01
5.880000e-01	3.310955e+00	5.821326e-01
5.910000e-01	3.299939e+00	5.759937e-01
5.940000e-01	3.289071e+00	5.701979e-01
5.970000e-01	3.278348e+00	5.647179e-01
6.000000e-01	3.267766e+00	5.595287e-01
6.030000e-01	3.257318e+00	5.546083e-01
6.060000e-01	3.247001e+00	5.499373e-01
6.090000e-01	3.236808e+00	5.454984e-01
6.120000e-01	3.226733e+00	5.412761e-01
6.150000e-01	3.216772e+00	5.372563e-01
6.180000e-01	3.206918e+00	5.334265e-01
6.210000e-01	3.197166e+00	5.297753e-01
6.240000e-01	3.187511e+00	5.262925e-01
6.270000e-01	3.177948e+00	5.229685e-01
6.300000e-01	3.168473e+00	5.197950e-01
6.330000e-01	3.159079e+00	5.167643e-01
6.360000e-01	3.149764e+00	5.138691e-01
6.390000e-01	3.140523e+00	5.111031e-01
6.420000e-01	3.131351e+00	5.084604e-01
6.450000e-01	3.122245e+00	5.059354e-01
6.480000e-01	3.113201e+00	5.035231e-01
6.510000e-01	3.104215e+00	5.012190e-01
6.540000e-01	3.095285e+00	4.990187e-01
6.570000e-01	3.086406e+00	4.969183e-01
6.600000e-01	3.077576e+00	4.949143e-01
6.630000e-01	3.068792e+00	4.930030e-01
6.660000e-01	3.060051e+00	4.911815e-01
6.690000e-01	3.051349e+00	4.894469e-01
6.720000e-01	3.042686e+00	4.877963e-01
6.750000e-01	3.034057e+00	4.862273e-01
6.780000e-01	3.025461e+00	4.847375e-01
6.810000e-01	3.016896e+00	4.833247e-01
6.840000e-01	3.008358e+00	4.819868e-01
6.870000e-01	2.999847e+00	4.807220e-01
6.900000e-01	2.991360e+00	4.795284e-01
6.930000e-01	2.982896e+00	4.784044e-01
6.960000e-01	2.974451e+00	4.773483e-01
6.990000e-01	2.966026e+00	4.763588e-01
7.020000e-01	2.957617e+00	4.754343e-01
7.050000e-01	2.949223e+00	4.745737e-01
7.080000e-01	2.940843e+00	4.737758e-01
7.110000e-01	2.932475e+00	4.730393e-01
7.140000e-01	2.924118e+00	4.723631e-01
7.170000e-01	2.915770e+00	4.717464e-01
7.200000e-01	2.907430e+00	4.711882e-01
7.230000e-01	2.899096e+00	4.706876e-01
7.260000e-01	2.890768e+00	4.702437e-01
7.290000e-01	2.882444e+00	4.698559e-01
7.320000e-01	2.874123e+00	4.695233e-01
7.350000e-01	2.865803e+00	4.692453e-01
7.380000e-01	2.857484e+00	4.690213e-01
7.410000e-01	2.849165e+00	4.688507e-01
7.440000e-01	2.840844e+00	4.687329e-01
7.470000e-01	2.832521e+00	4.686675e-01
7.500000e-01	2.824194e+00	4.686539e-01
7.530000e-01	2.815862e+00	4.686918e-01
7.560000e-01	2.807526e+00	4.687807e-01
7.590000e-01	2.799183e+00	4.689202e-01
7.620000e-01	2.790832e+00	4.691100e-01
7.650000e-01	2.782474e+00	4.693499e-01
7.680000e-01	2.774107e+00	4.696395e-01
7.710000e-01	2.765731e+00	4.699785e-01
7.740000e-01	2.757344e+00	4.703668e-01
7.770000e-01	2.748946e+00	4.708041e-01
7.800000e-01	2.740536e+00	4.712902e-01
7.830000e-01	2.732113e+00	4.718251e-01
7.860000e-01	2.723677e+00	4.724085e-01
7.890000e-01	2.715228e+00	4.730404e-01
7.920000e-01	2.706763e+00	4.737207e-01
7.950000e-01	2.698283e+00	4.744493e-01
7.980000e-01	2.689788e+00	4.752261e-01
8.010000e-01	2.681275e+00	4.760511e-01
8.040000e-01	2.672746e+00	4.769244e-01
8.070000e-01	2.664198e+00	4.778460e-01
8.100000e-01	2.655633e+00	4.788158e-01
8.130000e-01	2.647048e+00	4.798340e-01
8.160000e-01	2.638444e+00	4.809005e-01
8.190000e-01	2.629820e+00	4.820156e-01
8.220000e-01	2.621176e+00	4.831793e-01
8.250000e-01	2.612511e+00	4.843917e-01
8.280000e-01	2.603824e+00	4.856530e-01
8.310000e-01	2.595114e+00	4.869633e-01
8.340000e-01	2.586383e+00	4.883228e-01
8.370000e-01	2.577628e+00	4.897317e-01
8.400000e-01	2.568850e+00	4.911903e-01
8.430000e-01	2.560048e+00	4.926987e-01
8.460000e-01	2.551222e+00	4.942571e-01
8.490000e-01	2.542371e+00	4.958660e-01
8.520000e-01	2.533495e+00	4.975255e-01
8.550000e-01	2.524593e+00	4.992359e-01
8.580000e-01	2.515666e+00	5.009975e-01
8.610000e-01	2.506712e+00	5.028108e-01
8.640000e-01	2.497731e+00	5.046759e-01
8.670000e-01	2.488723e+00	5.065934e-01
8.700000e-01	2.479687e+00	5.085635e-01
8.730000e-01	2.470624e+00	5.105867e-01
8.760000e-01	2.461532e+00	5.126633e-01
8.790000e-01	2.452412e+00	5.147939e-01
8.820000e-01	2.443264e+00	5.169789e-01
8.850000e-01	2.434086e+00	5.192186e-01
8.880000e-01	2.424878e+00	5.215137e-01
8.910000e-01	2.415641e+00	5.238646e-01
8.940000e-01	2.406374e+00	5.262718e-01
8.970000e-01	2.397077e+00	5.287359e-01
9.000000e-01	2.387749e+00	5.312573e-01
9.030000e-01	2.378390e+00	5.338368e-01
9.060000e-01	2.369000e+00	5.364749e-01
9.090000e-01	2.359579e+00	5.391722e-01
9.120000e-01	2.350127e+00	5.419293e-01
9.150000e-01	2.340643e+00	5.447468e-01
9.180000e-01	2.331127e+00	5.476255e-01
9.210000e-01	2.321579e+00	5.505660e-01
9.240000e-01	2.311999e+00	5.535691e-01
9.270000e-01	2.302387e+00	5.566354e-01
9.300000e-01	2.292742e+00	5.597657e-01
9.330000e-01	2.283065e+00	5.629607e-01
9.360000e-01	2.273355e+00	5.662212e-01
9.390000e-01	2.263612e+00	5.695482e-01
9.420000e-01	2.253837e+00	5.729422e-01
9.450000e-01	2.244028e+00	5.764043e-01
9.480000e-01	2.234187e+00	5.799353e-01
9.510000e-01	2.224313e+00	5.835360e-01
9.540000e-01	2.214407e+00	5.872074e-01
9.570000e-01	2.204467e+00	5.909503e-01
9.600000e-01	2.194495e+00	5.947658e-01
9.630000e-01	2.184490e+00	5.986548e-01
9.660000e-01	2.174452e+00	6.026184e-01
9.690000e-01	2.164382e+00	6.066574e-01
9.720000e-01	2.154280e+00	6.107729e-01
9.750000e-01	2.144145e+00	6.149661e-01
9.780000e-01	2.133979e+00	6.192379e-01
9.810000e-01	2.123781e+00	6.235895e-01
9.840000e-01	2.113551e+00	6.280220e-01
9.870000e-01	2.103291e+00	6.325365e-01
9.900000e-01	2.092999e+00	6.371341e-01
9.930000e-01	2.082678e+00	6.418161e-01
9.960000e-01	2.072326e+00	6.465836e-01
9.990000e-01	2.061945e+00	6.514379e-01
1.005000e+00	2.041096e+00	6.614117e-01
1.012500e+00	2.014877e+00	6.743892e-01
1.020000e+00	1.988493e+00	6.879526e-01
1.027500e+00	1.961957e+00	7.021227e-01
1.035000e+00	1.935281e+00	7.169208e-01
1.042500e+00	1.908481e+00	7.323682e-01
1.050000e+00	1.881577e+00	7.484865e-01
1.057500e+00	1.854589e+00	7.652974e-01
1.065000e+00	1.827541e+00	7.828217e-01
1.072500e+00	1.800459e+00	8.010801e-01
1.080000e+00	1.773373e+00	8.200918e-01
1.087500e+00	1.746315e+00	8.398747e-01
1.095000e+00	1.719321e+00	8.604451e-01
1.102500e+00	1.692429e+00	8.818166e-01
1.110000e+00	1.665681e+00	9.040002e-01
1.117500e+00	1.639120e+00	9.270034e-01
1.125000e+00	1.612793e+00	9.508300e-01
1.132500e+00	1.586749e+00	9.754791e-01
1.140000e+00	1.561035e+00	1.000945e+00
1.147500e+00	1.535703e+00	1.027219e+00
1.155000e+00	1.510803e+00	1.054284e+00
1.162500e+00	1.486383e+00	1.082119e+00
1.170000e+00	1.462493e+00	1.110697e+00
1.177500e+00	1.439177e+00	1.139988e+00
1.185000e+00	1.416477e+00	1.169954e+00
1.192500e+00	1.394433e+00	1.200555e+00
1.200000e+00	1.373078e+00	1.231745e+00
1.207500e+00	1.352441e+00	1.263477e+00
1.215000e+00	1.332545e+00	1.295700e+00
1.222500e+00	1.313408e+00	1.328363e+00
1.230000e+00	1.295043e+00	1.361415e+00
1.237500e+00	1.277458e+00	1.394802e+00
1.245000e+00	1.260652e+00	1.428474e+00
1.252500e+00	1.244625e+00	1.462382e+00
1.260000e+00	1.229367e+00	1.496477e+00
1.267500e+00	1.214869e+00	1.530717e+00
1.275000e+00	1.201116e+00	1.565057e+00
1.282500e+00	1.188091e+00	1.599461e+00
1.290000e+00	1.175774e+00	1.633891e+00
1.297500e+00	1.164144e+00	1.668315e+00
1.305000e+00	1.153178e+00	1.702704e+00
1.312500e+00	1.142853e+00	1.737032e+00
1.320000e+00	1.133146e+00	1.771274e+00
1.327500e+00	1.124031e+00	1.805412e+00
1.335000e+00	1.115484e+00	1.839425e+00
1.342500e+00	1.107483e+00	1.873300e+00
1.350000e+00	1.100002e+00	1.907021e+00
1.357500e+00	1.093020e+00	1.940579e+00
1.365000e+00	1.086513e+00	1.973962e+00
1.372500e+00	1.080461e+00	2.007164e+00
1.380000e+00	1.074842e+00	2.040178e+00
1.387500e+00	1.069637e+00	2.072997e+00
1.395000e+00	1.064826e+00	2.105619e+00
1.402500e+00	1.060391e+00	2.138040e+00
1.410000e+00	1.056314e+00	2.170258e+00
1.417500e+00	1.052580e+00	2.202271e+00
1.425000e+00	1.049172e+00	2.234079e+00
1.432500e+00	1.046075e+00	2.265681e+00
1.440000e+00	1.043274e+00	2.297077e+00
1.447500e+00	1.040758e+00	2.328269e+00
1.455000e+00	1.038512e+00	2.359259e+00
1.462500e+00	1.036524e+00	2.390046e+00
1.470000e+00	1.034784e+00	2.420633e+00
1.477500e+00	1.033280e+00	2.451022e+00
1.485000e+00	1.032002e+00	2.481216e+00
1.492500e+00	1.030940e+00	2.511216e+00
1.500000e+00	1.030085e+00	2.541025e+00
1.507500e+00	1.029429e+00	2.570645e+00
1.515000e+00	1.028963e+00	2.600079e+00
1.522500e+00	1.028679e+00	2.629330e+00
1.530000e+00	1.028570e+00	2.658401e+00
1.537500e+00	1.028628e+00	2.687294e+00
1.545000e+00	1.028848e+00	2.716012e+00
1.552500e+00	1.029223e+00	2.744557e+00
1.560000e+00	1.029746e+00	2.772934e+00
1.567500e+00	1.030413e+00	2.801143e+00
1.575000e+00	1.031217e+00	2.829188e+00
1.582500e+00	1.032153e+00	2.857073e+00
1.590000e+00	1.033217e+00	2.884798e+00
1.597500e+00	1.034404e+00	2.912368e+00
1.605000e+00	1.035710e+00	2.939784e+00
1.612500e+00	1.037129e+00	2.967050e+00
1.620000e+00	1.038659e+00	2.994167e+00
1.627500e+00	1.040295e+00	3.021138e+00
1.635000e+00	1.042034e+00	3.047966e+00
1.642500e+00	1.043872e+00	3.074653e+00
1.650000e+00	1.045806e+00	3.101202e+00
1.657500e+00	1.047832e+00	3.127614e+00
1.665000e+00	1.049948e+00	3.153892e+00
1.672500e+00	1.052151e+00	3.180038e+00
1.680000e+00	1.054437e+00	3.206054e+00
1.687500e+00	1.056805e+00	3.231943e+00
