Material: schott / misc / D263TECO
Optical constants. SCHOTT Zemax catalog 2017-01-20b (obtained from http://www.schott.com)See also SCHOTT glass data sheets
Comments: Clear borosilicate glass of high chemical resistance
Specs: {"n_absolute": false, "wavelength_vacuum": false, "temperature": "20.0 °C", "nd": 1.523303, "Vd": 54.5172, "glass_status": "standard", "density": "2.51 g/cm3", "thermal_expansion": [{"temperature_range": "-30 70 °C", "coefficient": "7.2e-06 K-1"}]}
Dispersion formula 2, range 0.334 2.325 um, coefficients 0 1.23795755 0.00863080926 0.0466468888 0.0469074501 2.46700556 264.146296
wavelength (um)	k
0.334	1.0398E-05
0.350	1.4885E-06
0.365	3.2221E-07
0.370	2.1367E-07
0.380	1.4240E-07
0.390	8.1759E-08
0.400	6.1061E-08
0.420	5.0514E-08
0.460	4.7899E-08
0.500	3.1959E-08
0.580	9.2402E-09
0.660	1.0515E-08
0.700	1.1152E-08
0.850	4.0707E-08
1.060	-0.0000E+00
1.260	2.0074E-08
1.529	1.1000E-07
1.970	5.4228E-07
2.325	3.0942E-06
