Material: inorganic / MoSe2 / Munkhbat-e
Optical constants. B. Munkhbat, P. Wrobel, T. J. Antosiewicz, T. O. Shegai. Optical constants of several multilayer transition metal dichalcogenides spectroscopic ellipsometry in the 300–1700 nm range: High index, anisotropy, and hyperbolicity, ACS Photonics 9, 2398–2407 (2022) (Numerical data kindly provided by Tomasz Antosiewicz)
Comments: Multilayer flakes. Out-of-plane (extraordinary ray, e). Room temperature.
Specs: {"n_absolute": true, "wavelength_vacuum": true}
wavelength (um)	n
3.000000E-01	3.250169E+00
3.030000E-01	3.238102E+00
3.060000E-01	3.226508E+00
3.090000E-01	3.215360E+00
3.120000E-01	3.204636E+00
3.150000E-01	3.194311E+00
3.180000E-01	3.184365E+00
3.210000E-01	3.174780E+00
3.240000E-01	3.165536E+00
3.270000E-01	3.156618E+00
3.300000E-01	3.148009E+00
3.330000E-01	3.139693E+00
3.360000E-01	3.131658E+00
3.390000E-01	3.123891E+00
3.420000E-01	3.116378E+00
3.450000E-01	3.109108E+00
3.480000E-01	3.102071E+00
3.510000E-01	3.095256E+00
3.540000E-01	3.088653E+00
3.570000E-01	3.082254E+00
3.600000E-01	3.076050E+00
3.630000E-01	3.070032E+00
3.660000E-01	3.064192E+00
3.690000E-01	3.058525E+00
3.720000E-01	3.053021E+00
3.750000E-01	3.047676E+00
3.780000E-01	3.042483E+00
3.810000E-01	3.037435E+00
3.840000E-01	3.032528E+00
3.870000E-01	3.027755E+00
3.900000E-01	3.023112E+00
3.930000E-01	3.018595E+00
3.960000E-01	3.014197E+00
3.990000E-01	3.009915E+00
4.020000E-01	3.005746E+00
4.050000E-01	3.001684E+00
4.080000E-01	2.997725E+00
4.110000E-01	2.993868E+00
4.140000E-01	2.990107E+00
4.170000E-01	2.986439E+00
4.200000E-01	2.982862E+00
4.230000E-01	2.979372E+00
4.260000E-01	2.975967E+00
4.290000E-01	2.972643E+00
4.320000E-01	2.969398E+00
4.350000E-01	2.966229E+00
4.380000E-01	2.963135E+00
4.410000E-01	2.960112E+00
4.440000E-01	2.957158E+00
4.470000E-01	2.954271E+00
4.500000E-01	2.951450E+00
4.530000E-01	2.948691E+00
4.560000E-01	2.945994E+00
4.590000E-01	2.943356E+00
4.620000E-01	2.940776E+00
4.650000E-01	2.938251E+00
4.680000E-01	2.935781E+00
4.710000E-01	2.933363E+00
4.740000E-01	2.930996E+00
4.770000E-01	2.928679E+00
4.800000E-01	2.926411E+00
4.830000E-01	2.924189E+00
4.860000E-01	2.922012E+00
4.890000E-01	2.919880E+00
4.920000E-01	2.917791E+00
4.950000E-01	2.915744E+00
4.980000E-01	2.913737E+00
5.010000E-01	2.911770E+00
5.040000E-01	2.909842E+00
5.070000E-01	2.907951E+00
5.100000E-01	2.906097E+00
5.130000E-01	2.904279E+00
5.160000E-01	2.902495E+00
5.190000E-01	2.900745E+00
5.220000E-01	2.899028E+00
5.250000E-01	2.897342E+00
5.280000E-01	2.895689E+00
5.310000E-01	2.894065E+00
5.340000E-01	2.892472E+00
5.370000E-01	2.890907E+00
5.400000E-01	2.889371E+00
5.430000E-01	2.887862E+00
5.460000E-01	2.886380E+00
5.490000E-01	2.884924E+00
5.520000E-01	2.883494E+00
5.550000E-01	2.882089E+00
5.580000E-01	2.880709E+00
5.610000E-01	2.879352E+00
5.640000E-01	2.878019E+00
5.670000E-01	2.876708E+00
5.700000E-01	2.875420E+00
5.730000E-01	2.874153E+00
5.760000E-01	2.872908E+00
5.790000E-01	2.871683E+00
5.820000E-01	2.870479E+00
5.850000E-01	2.869295E+00
5.880000E-01	2.868130E+00
5.910000E-01	2.866983E+00
5.940000E-01	2.865856E+00
5.970000E-01	2.864746E+00
6.000000E-01	2.863655E+00
6.030000E-01	2.862581E+00
6.060000E-01	2.861523E+00
6.090000E-01	2.860483E+00
6.120000E-01	2.859458E+00
6.150000E-01	2.858450E+00
6.180000E-01	2.857457E+00
6.210000E-01	2.856479E+00
6.240000E-01	2.855517E+00
6.270000E-01	2.854569E+00
6.300000E-01	2.853635E+00
6.330000E-01	2.852716E+00
6.360000E-01	2.851810E+00
6.390000E-01	2.850918E+00
6.420000E-01	2.850039E+00
6.450000E-01	2.849173E+00
6.480000E-01	2.848319E+00
6.510000E-01	2.847478E+00
6.540000E-01	2.846650E+00
6.570000E-01	2.845833E+00
6.600000E-01	2.845028E+00
6.630000E-01	2.844235E+00
6.660000E-01	2.843452E+00
6.690000E-01	2.842681E+00
6.720000E-01	2.841921E+00
6.750000E-01	2.841172E+00
6.780000E-01	2.840433E+00
6.810000E-01	2.839704E+00
6.840000E-01	2.838985E+00
6.870000E-01	2.838276E+00
6.900000E-01	2.837577E+00
6.930000E-01	2.836887E+00
6.960000E-01	2.836207E+00
6.990000E-01	2.835536E+00
7.020000E-01	2.834874E+00
7.050000E-01	2.834221E+00
7.080000E-01	2.833576E+00
7.110000E-01	2.832940E+00
7.140000E-01	2.832312E+00
7.170000E-01	2.831693E+00
7.200000E-01	2.831082E+00
7.230000E-01	2.830478E+00
7.260000E-01	2.829883E+00
7.290000E-01	2.829295E+00
7.320000E-01	2.828714E+00
7.350000E-01	2.828142E+00
7.380000E-01	2.827576E+00
7.410000E-01	2.827017E+00
7.440000E-01	2.826466E+00
7.470000E-01	2.825921E+00
7.500000E-01	2.825384E+00
7.530000E-01	2.824853E+00
7.560000E-01	2.824328E+00
7.590000E-01	2.823810E+00
7.620000E-01	2.823299E+00
7.650000E-01	2.822793E+00
7.680000E-01	2.822294E+00
7.710000E-01	2.821801E+00
7.740000E-01	2.821314E+00
7.770000E-01	2.820832E+00
7.800000E-01	2.820357E+00
7.830000E-01	2.819887E+00
7.860000E-01	2.819423E+00
7.890000E-01	2.818964E+00
7.920000E-01	2.818510E+00
7.950000E-01	2.818062E+00
7.980000E-01	2.817619E+00
8.010000E-01	2.817182E+00
8.040000E-01	2.816749E+00
8.070000E-01	2.816321E+00
8.100000E-01	2.815899E+00
8.130000E-01	2.815481E+00
8.160000E-01	2.815068E+00
8.190000E-01	2.814659E+00
8.220000E-01	2.814255E+00
8.250000E-01	2.813856E+00
8.280000E-01	2.813461E+00
8.310000E-01	2.813071E+00
8.340000E-01	2.812685E+00
8.370000E-01	2.812303E+00
8.400000E-01	2.811926E+00
8.430000E-01	2.811553E+00
8.460000E-01	2.811183E+00
8.490000E-01	2.810818E+00
8.520000E-01	2.810457E+00
8.550000E-01	2.810100E+00
8.580000E-01	2.809746E+00
8.610000E-01	2.809397E+00
8.640000E-01	2.809051E+00
8.670000E-01	2.808709E+00
8.700000E-01	2.808370E+00
8.730000E-01	2.808035E+00
8.760000E-01	2.807704E+00
8.790000E-01	2.807376E+00
8.820000E-01	2.807051E+00
8.850000E-01	2.806730E+00
8.880000E-01	2.806413E+00
8.910000E-01	2.806098E+00
8.940000E-01	2.805787E+00
8.970000E-01	2.805479E+00
9.000000E-01	2.805174E+00
9.030000E-01	2.804873E+00
9.060000E-01	2.804574E+00
9.090000E-01	2.804279E+00
9.120000E-01	2.803986E+00
9.150000E-01	2.803696E+00
9.180000E-01	2.803410E+00
9.210000E-01	2.803126E+00
9.240000E-01	2.802845E+00
9.270000E-01	2.802567E+00
9.300000E-01	2.802291E+00
9.330000E-01	2.802019E+00
9.360000E-01	2.801749E+00
9.390000E-01	2.801481E+00
9.420000E-01	2.801217E+00
9.450000E-01	2.800955E+00
9.480000E-01	2.800695E+00
9.510000E-01	2.800438E+00
9.540000E-01	2.800183E+00
9.570000E-01	2.799931E+00
9.600000E-01	2.799682E+00
9.630000E-01	2.799434E+00
9.660000E-01	2.799189E+00
9.690000E-01	2.798947E+00
9.720000E-01	2.798706E+00
9.750000E-01	2.798468E+00
9.780000E-01	2.798233E+00
9.810000E-01	2.797999E+00
9.840000E-01	2.797768E+00
9.870000E-01	2.797538E+00
9.900000E-01	2.797311E+00
9.930000E-01	2.797086E+00
9.960000E-01	2.796863E+00
9.990000E-01	2.796642E+00
1.005000E+00	2.796207E+00
1.012500E+00	2.795673E+00
1.020000E+00	2.795152E+00
1.027500E+00	2.794642E+00
1.035000E+00	2.794143E+00
1.042500E+00	2.793655E+00
1.050000E+00	2.793178E+00
1.057500E+00	2.792712E+00
1.065000E+00	2.792255E+00
1.072500E+00	2.791808E+00
1.080000E+00	2.791371E+00
1.087500E+00	2.790943E+00
1.095000E+00	2.790523E+00
1.102500E+00	2.790113E+00
1.110000E+00	2.789711E+00
1.117500E+00	2.789317E+00
1.125000E+00	2.788931E+00
1.132500E+00	2.788553E+00
1.140000E+00	2.788182E+00
1.147500E+00	2.787819E+00
1.155000E+00	2.787463E+00
1.162500E+00	2.787114E+00
1.170000E+00	2.786772E+00
1.177500E+00	2.786436E+00
1.185000E+00	2.786107E+00
1.192500E+00	2.785784E+00
1.200000E+00	2.785467E+00
1.207500E+00	2.785157E+00
1.215000E+00	2.784852E+00
1.222500E+00	2.784553E+00
1.230000E+00	2.784259E+00
1.237500E+00	2.783971E+00
1.245000E+00	2.783688E+00
1.252500E+00	2.783410E+00
1.260000E+00	2.783137E+00
1.267500E+00	2.782869E+00
1.275000E+00	2.782606E+00
1.282500E+00	2.782347E+00
1.290000E+00	2.782094E+00
1.297500E+00	2.781844E+00
1.305000E+00	2.781599E+00
1.312500E+00	2.781358E+00
1.320000E+00	2.781121E+00
1.327500E+00	2.780889E+00
1.335000E+00	2.780660E+00
1.342500E+00	2.780435E+00
1.350000E+00	2.780214E+00
1.357500E+00	2.779997E+00
1.365000E+00	2.779783E+00
1.372500E+00	2.779573E+00
1.380000E+00	2.779366E+00
1.387500E+00	2.779163E+00
1.395000E+00	2.778963E+00
1.402500E+00	2.778766E+00
1.410000E+00	2.778572E+00
1.417500E+00	2.778382E+00
1.425000E+00	2.778194E+00
1.432500E+00	2.778010E+00
1.440000E+00	2.777828E+00
1.447500E+00	2.777650E+00
1.455000E+00	2.777474E+00
1.462500E+00	2.777300E+00
1.470000E+00	2.777130E+00
1.477500E+00	2.776962E+00
1.485000E+00	2.776797E+00
1.492500E+00	2.776634E+00
1.500000E+00	2.776473E+00
1.507500E+00	2.776315E+00
1.515000E+00	2.776160E+00
1.522500E+00	2.776006E+00
1.530000E+00	2.775855E+00
1.537500E+00	2.775706E+00
1.545000E+00	2.775560E+00
1.552500E+00	2.775415E+00
1.560000E+00	2.775273E+00
1.567500E+00	2.775133E+00
1.575000E+00	2.774994E+00
1.582500E+00	2.774858E+00
1.590000E+00	2.774724E+00
1.597500E+00	2.774591E+00
1.605000E+00	2.774460E+00
1.612500E+00	2.774332E+00
1.620000E+00	2.774205E+00
1.627500E+00	2.774080E+00
1.635000E+00	2.773956E+00
1.642500E+00	2.773834E+00
1.650000E+00	2.773714E+00
1.657500E+00	2.773596E+00
1.665000E+00	2.773479E+00
1.672500E+00	2.773364E+00
1.680000E+00	2.773250E+00
1.687500E+00	2.773138E+00
