Material: inorganic / MoSe2 / Munkhbat-o
Optical constants. B. Munkhbat, P. Wrobel, T. J. Antosiewicz, T. O. Shegai. Optical constants of several multilayer transition metal dichalcogenides spectroscopic ellipsometry in the 300–1700 nm range: High index, anisotropy, and hyperbolicity, ACS Photonics 9, 2398–2407 (2022) (Numerical data kindly provided by Tomasz Antosiewicz)
Comments: Multilayer flakes. In-plane (ordinary ray, o). Room temperature.
Specs: {"n_absolute": true, "wavelength_vacuum": true}
wavelength (um)	n	k
3.000000e-01	2.855842e+00	2.765701e+00
3.030000e-01	2.905609e+00	2.750435e+00
3.060000e-01	2.952032e+00	2.731125e+00
3.090000e-01	2.994347e+00	2.708379e+00
3.120000e-01	3.031927e+00	2.682965e+00
3.150000e-01	3.064314e+00	2.655778e+00
3.180000e-01	3.091245e+00	2.627794e+00
3.210000e-01	3.112667e+00	2.600021e+00
3.240000e-01	3.128734e+00	2.573448e+00
3.270000e-01	3.139789e+00	2.548998e+00
3.300000e-01	3.146340e+00	2.527491e+00
3.330000e-01	3.149023e+00	2.509618e+00
3.360000e-01	3.148570e+00	2.495921e+00
3.390000e-01	3.145765e+00	2.486792e+00
3.420000e-01	3.141419e+00	2.482471e+00
3.450000e-01	3.136337e+00	2.483061e+00
3.480000e-01	3.131295e+00	2.488537e+00
3.510000e-01	3.127029e+00	2.498766e+00
3.540000e-01	3.124216e+00	2.513522e+00
3.570000e-01	3.123472e+00	2.532503e+00
3.600000e-01	3.125349e+00	2.555346e+00
3.630000e-01	3.130333e+00	2.581638e+00
3.660000e-01	3.138849e+00	2.610932e+00
3.690000e-01	3.151260e+00	2.642747e+00
3.720000e-01	3.167875e+00	2.676581e+00
3.750000e-01	3.188949e+00	2.711906e+00
3.780000e-01	3.214686e+00	2.748179e+00
3.810000e-01	3.245242e+00	2.784834e+00
3.840000e-01	3.280718e+00	2.821283e+00
3.870000e-01	3.321161e+00	2.856916e+00
3.900000e-01	3.366555e+00	2.891101e+00
3.930000e-01	3.416811e+00	2.923183e+00
3.960000e-01	3.471759e+00	2.952490e+00
3.990000e-01	3.531130e+00	2.978344e+00
4.020000e-01	3.594547e+00	3.000072e+00
4.050000e-01	3.661511e+00	3.017029e+00
4.080000e-01	3.731396e+00	3.028624e+00
4.110000e-01	3.803447e+00	3.034351e+00
4.140000e-01	3.876792e+00	3.033829e+00
4.170000e-01	3.950464e+00	3.026834e+00
4.200000e-01	4.023434e+00	3.013331e+00
4.230000e-01	4.094660e+00	2.993498e+00
4.260000e-01	4.163139e+00	2.967732e+00
4.290000e-01	4.227970e+00	2.936636e+00
4.320000e-01	4.288401e+00	2.900992e+00
4.350000e-01	4.343878e+00	2.861717e+00
4.380000e-01	4.394066e+00	2.819802e+00
4.410000e-01	4.438860e+00	2.776253e+00
4.440000e-01	4.478367e+00	2.732033e+00
4.470000e-01	4.512886e+00	2.688013e+00
4.500000e-01	4.542861e+00	2.644936e+00
4.530000e-01	4.568843e+00	2.603395e+00
4.560000e-01	4.591448e+00	2.563827e+00
4.590000e-01	4.611311e+00	2.526517e+00
4.620000e-01	4.629064e+00	2.491610e+00
4.650000e-01	4.645311e+00	2.459126e+00
4.680000e-01	4.660609e+00	2.428928e+00
4.710000e-01	4.675343e+00	2.400828e+00
4.740000e-01	4.689876e+00	2.374645e+00
4.770000e-01	4.704521e+00	2.350149e+00
4.800000e-01	4.719529e+00	2.327078e+00
4.830000e-01	4.735090e+00	2.305156e+00
4.860000e-01	4.751336e+00	2.284103e+00
4.890000e-01	4.768347e+00	2.263641e+00
4.920000e-01	4.786159e+00	2.243502e+00
4.950000e-01	4.804766e+00	2.223431e+00
4.980000e-01	4.824124e+00	2.203193e+00
5.010000e-01	4.844161e+00	2.182570e+00
5.040000e-01	4.864775e+00	2.161370e+00
5.070000e-01	4.885842e+00	2.139420e+00
5.100000e-01	4.907220e+00	2.116574e+00
5.130000e-01	4.928749e+00	2.092710e+00
5.160000e-01	4.950255e+00	2.067733e+00
5.190000e-01	4.971556e+00	2.041574e+00
5.220000e-01	4.992462e+00	2.014191e+00
5.250000e-01	5.012777e+00	1.985570e+00
5.280000e-01	5.032306e+00	1.955723e+00
5.310000e-01	5.050855e+00	1.924692e+00
5.340000e-01	5.068235e+00	1.892546e+00
5.370000e-01	5.084264e+00	1.859381e+00
5.400000e-01	5.098773e+00	1.825318e+00
5.430000e-01	5.111608e+00	1.790507e+00
5.460000e-01	5.122633e+00	1.755120e+00
5.490000e-01	5.131733e+00	1.719352e+00
5.520000e-01	5.138822e+00	1.683419e+00
5.550000e-01	5.143840e+00	1.647554e+00
5.580000e-01	5.146761e+00	1.612003e+00
5.610000e-01	5.147595e+00	1.577023e+00
5.640000e-01	5.146392e+00	1.542878e+00
5.670000e-01	5.143244e+00	1.509828e+00
5.700000e-01	5.138286e+00	1.478128e+00
5.730000e-01	5.131700e+00	1.448019e+00
5.760000e-01	5.123715e+00	1.419717e+00
5.790000e-01	5.114605e+00	1.393404e+00
5.820000e-01	5.104688e+00	1.369217e+00
5.850000e-01	5.094316e+00	1.347234e+00
5.880000e-01	5.083871e+00	1.327463e+00
5.910000e-01	5.073743e+00	1.309830e+00
5.940000e-01	5.064317e+00	1.294167e+00
5.970000e-01	5.055944e+00	1.280210e+00
6.000000e-01	5.048911e+00	1.267602e+00
6.030000e-01	5.043412e+00	1.255902e+00
6.060000e-01	5.039516e+00	1.244618e+00
6.090000e-01	5.037146e+00	1.233236e+00
6.120000e-01	5.036070e+00	1.221272e+00
6.150000e-01	5.035908e+00	1.208324e+00
6.180000e-01	5.036158e+00	1.194121e+00
6.210000e-01	5.036245e+00	1.178559e+00
6.240000e-01	5.035577e+00	1.161725e+00
6.270000e-01	5.033608e+00	1.143888e+00
6.300000e-01	5.029892e+00	1.125482e+00
6.330000e-01	5.024125e+00	1.107062e+00
6.360000e-01	5.016173e+00	1.089255e+00
6.390000e-01	5.006075e+00	1.072712e+00
6.420000e-01	4.994039e+00	1.058063e+00
6.450000e-01	4.980423e+00	1.045881e+00
6.480000e-01	4.965719e+00	1.036658e+00
6.510000e-01	4.950528e+00	1.030790e+00
6.540000e-01	4.935551e+00	1.028555e+00
6.570000e-01	4.921575e+00	1.030109e+00
6.600000e-01	4.909466e+00	1.035462e+00
6.630000e-01	4.900165e+00	1.044454e+00
6.660000e-01	4.894683e+00	1.056706e+00
6.690000e-01	4.894044e+00	1.071579e+00
6.720000e-01	4.899365e+00	1.088127e+00
6.750000e-01	4.911580e+00	1.104460e+00
6.780000e-01	4.930491e+00	1.118760e+00
6.810000e-01	4.955828e+00	1.129308e+00
6.840000e-01	4.986815e+00	1.134214e+00
6.870000e-01	5.021975e+00	1.131686e+00
6.900000e-01	5.059110e+00	1.120381e+00
6.930000e-01	5.095491e+00	1.099768e+00
6.960000e-01	5.128256e+00	1.070368e+00
6.990000e-01	5.154910e+00	1.033754e+00
7.020000e-01	5.173762e+00	9.922687e-01
7.050000e-01	5.184147e+00	9.485684e-01
7.080000e-01	5.186374e+00	9.051504e-01
7.110000e-01	5.181474e+00	8.640134e-01
7.140000e-01	5.170865e+00	8.265131e-01
7.170000e-01	5.156064e+00	7.933832e-01
7.200000e-01	5.138471e+00	7.648544e-01
7.230000e-01	5.119270e+00	7.408044e-01
7.260000e-01	5.099389e+00	7.208961e-01
7.290000e-01	5.079513e+00	7.046857e-01
7.320000e-01	5.060114e+00	6.916976e-01
7.350000e-01	5.041497e+00	6.814729e-01
7.380000e-01	5.023832e+00	6.735967e-01
7.410000e-01	5.007191e+00	6.677137e-01
7.440000e-01	4.991574e+00	6.635349e-01
7.470000e-01	4.976930e+00	6.608408e-01
7.500000e-01	4.963174e+00	6.594826e-01
7.530000e-01	4.950205e+00	6.593837e-01
7.560000e-01	4.937916e+00	6.605412e-01
7.590000e-01	4.926213e+00	6.630294e-01
7.620000e-01	4.915025e+00	6.670047e-01
7.650000e-01	4.904329e+00	6.727118e-01
7.680000e-01	4.894175e+00	6.804908e-01
7.710000e-01	4.884726e+00	6.907843e-01
7.740000e-01	4.876310e+00	7.041392e-01
7.770000e-01	4.869497e+00	7.211972e-01
7.800000e-01	4.865211e+00	7.426585e-01
7.830000e-01	4.864876e+00	7.691888e-01
7.860000e-01	4.870589e+00	8.012223e-01
7.890000e-01	4.885278e+00	8.385826e-01
7.920000e-01	4.912714e+00	8.798388e-01
7.950000e-01	4.957077e+00	9.213846e-01
7.980000e-01	5.021666e+00	9.565213e-01
8.010000e-01	5.106434e+00	9.753821e-01
8.040000e-01	5.205142e+00	9.672627e-01
8.070000e-01	5.304781e+00	9.254612e-01
8.100000e-01	5.389484e+00	8.520270e-01
8.130000e-01	5.447513e+00	7.578144e-01
8.160000e-01	5.475696e+00	6.570598e-01
8.190000e-01	5.478230e+00	5.612894e-01
8.220000e-01	5.462471e+00	4.767886e-01
8.250000e-01	5.435494e+00	4.053950e-01
8.280000e-01	5.402628e+00	3.463784e-01
8.310000e-01	5.367370e+00	2.979666e-01
8.340000e-01	5.331808e+00	2.582089e-01
8.370000e-01	5.297087e+00	2.253532e-01
8.400000e-01	5.263778e+00	1.979570e-01
8.430000e-01	5.232113e+00	1.748817e-01
8.460000e-01	5.202140e+00	1.552467e-01
8.490000e-01	5.173808e+00	1.383756e-01
8.520000e-01	5.147020e+00	1.237495e-01
8.550000e-01	5.121663e+00	1.109682e-01
8.580000e-01	5.097620e+00	9.972092e-02
8.610000e-01	5.074779e+00	8.976452e-02
8.640000e-01	5.053037e+00	8.090652e-02
8.670000e-01	5.032304e+00	7.299306e-02
8.700000e-01	5.012496e+00	6.589979e-02
8.730000e-01	4.993540e+00	5.952508e-02
8.760000e-01	4.975373e+00	5.378497e-02
8.790000e-01	4.957938e+00	4.860934e-02
8.820000e-01	4.941185e+00	4.393905e-02
8.850000e-01	4.925071e+00	3.972371e-02
8.880000e-01	4.909557e+00	3.592002e-02
8.910000e-01	4.894609e+00	3.249042e-02
8.940000e-01	4.880200e+00	2.940210e-02
8.970000e-01	4.866303e+00	2.662619e-02
9.000000e-01	4.852903e+00	2.413709e-02
9.030000e-01	4.840000e+00	2.189691e-02
9.060000e-01	4.827552e+00	1.984260e-02
9.090000e-01	4.815512e+00	1.796117e-02
9.120000e-01	4.803851e+00	1.624358e-02
9.150000e-01	4.792548e+00	1.468117e-02
9.180000e-01	4.781583e+00	1.326566e-02
9.210000e-01	4.770940e+00	1.198919e-02
9.240000e-01	4.760606e+00	1.084429e-02
9.270000e-01	4.750569e+00	9.823845e-03
9.300000e-01	4.740817e+00	8.921135e-03
9.330000e-01	4.731342e+00	8.129785e-03
9.360000e-01	4.722134e+00	7.443764e-03
9.390000e-01	4.713188e+00	6.857370e-03
9.420000e-01	4.704496e+00	6.365212e-03
9.450000e-01	4.696055e+00	5.962195e-03
9.480000e-01	4.687863e+00	5.643506e-03
9.510000e-01	4.679925e+00	5.404593e-03
9.540000e-01	4.672260e+00	5.224161e-03
9.570000e-01	4.664845e+00	5.051565e-03
9.600000e-01	4.657645e+00	4.883659e-03
9.630000e-01	4.650644e+00	4.720330e-03
9.660000e-01	4.643826e+00	4.561462e-03
9.690000e-01	4.637182e+00	4.406941e-03
9.720000e-01	4.630700e+00	4.256656e-03
9.750000e-01	4.624374e+00	4.110497e-03
9.780000e-01	4.618194e+00	3.968358e-03
9.810000e-01	4.612155e+00	3.830134e-03
9.840000e-01	4.606250e+00	3.695725e-03
9.870000e-01	4.600473e+00	3.565032e-03
9.900000e-01	4.594819e+00	3.437961e-03
9.930000e-01	4.589283e+00	3.314419e-03
9.960000e-01	4.583860e+00	3.194316e-03
9.990000e-01	4.578546e+00	3.077565e-03
1.005000e+00	4.568230e+00	2.853788e-03
1.012500e+00	4.555882e+00	2.591479e-03
1.020000e+00	4.544095e+00	2.347429e-03
1.027500e+00	4.532826e+00	2.120554e-03
1.035000e+00	4.522035e+00	1.909853e-03
1.042500e+00	4.511689e+00	1.714399e-03
1.050000e+00	4.501758e+00	1.533332e-03
1.057500e+00	4.492214e+00	1.365856e-03
1.065000e+00	4.483033e+00	1.211231e-03
1.072500e+00	4.474193e+00	1.068772e-03
1.080000e+00	4.465673e+00	9.378396e-04
1.087500e+00	4.457455e+00	8.178403e-04
1.095000e+00	4.449522e+00	7.082210e-04
1.102500e+00	4.441859e+00	6.084659e-04
1.110000e+00	4.434452e+00	5.180937e-04
1.117500e+00	4.427287e+00	4.366547e-04
1.125000e+00	4.420352e+00	3.637285e-04
1.132500e+00	4.413637e+00	2.989216e-04
1.140000e+00	4.407131e+00	2.418650e-04
1.147500e+00	4.400825e+00	1.921786e-04
1.155000e+00	4.394709e+00	1.490059e-04
1.162500e+00	4.388775e+00	1.118722e-04
1.170000e+00	4.383014e+00	8.050427e-05
1.177500e+00	4.377421e+00	5.464563e-05
1.185000e+00	4.371987e+00	3.405509e-05
1.192500e+00	4.366706e+00	1.850574e-05
1.200000e+00	4.361573e+00	7.783943e-06
1.207500e+00	4.356581e+00	1.688364e-06
1.215000e+00	4.351727e+00	0
1.222500e+00	4.347006e+00	0
1.230000e+00	4.342412e+00	0
1.237500e+00	4.337939e+00	0
1.245000e+00	4.333581e+00	0
1.252500e+00	4.329334e+00	0
1.260000e+00	4.325194e+00	0
1.267500e+00	4.321157e+00	0
1.275000e+00	4.317219e+00	0
1.282500e+00	4.313375e+00	0
1.290000e+00	4.309624e+00	0
1.297500e+00	4.305962e+00	0
1.305000e+00	4.302384e+00	0
1.312500e+00	4.298890e+00	0
1.320000e+00	4.295475e+00	0
1.327500e+00	4.292138e+00	0
1.335000e+00	4.288875e+00	0
1.342500e+00	4.285684e+00	0
1.350000e+00	4.282563e+00	0
1.357500e+00	4.279510e+00	0
1.365000e+00	4.276522e+00	0
1.372500e+00	4.273598e+00	0
1.380000e+00	4.270736e+00	0
1.387500e+00	4.267933e+00	0
1.395000e+00	4.265188e+00	0
1.402500e+00	4.262499e+00	0
1.410000e+00	4.259865e+00	0
1.417500e+00	4.257284e+00	0
1.425000e+00	4.254755e+00	0
1.432500e+00	4.252275e+00	0
1.440000e+00	4.249844e+00	0
1.447500e+00	4.247460e+00	0
1.455000e+00	4.245123e+00	0
1.462500e+00	4.242830e+00	0
1.470000e+00	4.240580e+00	0
1.477500e+00	4.238373e+00	0
1.485000e+00	4.236207e+00	0
1.492500e+00	4.234081e+00	0
1.500000e+00	4.231994e+00	0
1.507500e+00	4.229945e+00	0
1.515000e+00	4.227934e+00	0
1.522500e+00	4.225958e+00	0
1.530000e+00	4.224018e+00	0
1.537500e+00	4.222112e+00	0
1.545000e+00	4.220239e+00	0
1.552500e+00	4.218399e+00	0
1.560000e+00	4.216591e+00	0
1.567500e+00	4.214814e+00	0
1.575000e+00	4.213068e+00	0
1.582500e+00	4.211351e+00	0
1.590000e+00	4.209663e+00	0
1.597500e+00	4.208003e+00	0
1.605000e+00	4.206371e+00	0
1.612500e+00	4.204766e+00	0
1.620000e+00	4.203187e+00	0
1.627500e+00	4.201634e+00	0
1.635000e+00	4.200106e+00	0
1.642500e+00	4.198602e+00	0
1.650000e+00	4.197123e+00	0
1.657500e+00	4.195667e+00	0
1.665000e+00	4.194234e+00	0
1.672500e+00	4.192823e+00	0
1.680000e+00	4.191435e+00	0
1.687500e+00	4.190068e+00	0
