Material: organic / C8H18 - octane / Myers
Optical constants. T. L. Myers, R. G. Tonkyn, T. O. Danby, M. S. Taubman, B. E. Bernacki, J. C. Birnbaum, S. W. Sharpe, T. J. Johnson. Accurate measurement of the optical constants n and k for a series of 57 inorganic and organic liquids for optical modeling and detection, Appl. Spectrosc. 72, 535-550 (2018) (see Supplemental Material for numerical data)
Comments: Isopropanol. 26 Â°C.
Specs: {"n_absolute": true, "wavelength_vacuum": true, "temperature": "26 Â°C"}
wavelength (um)	n	k
1.28246E+00	1.38512E+00	2.04387E-06
1.28556E+00	1.38512E+00	2.18467E-06
1.28868E+00	1.38512E+00	2.16896E-06
1.29181E+00	1.38512E+00	2.10730E-06
1.29495E+00	1.38512E+00	1.86531E-06
1.29812E+00	1.38511E+00	1.54984E-06
1.30129E+00	1.38511E+00	1.39355E-06
1.30448E+00	1.38511E+00	1.28089E-06
1.30769E+00	1.38510E+00	1.45544E-06
1.31091E+00	1.38510E+00	1.33140E-06
1.31415E+00	1.38510E+00	1.65810E-06
1.31741E+00	1.38509E+00	1.63384E-06
1.32068E+00	1.38509E+00	1.48076E-06
1.32397E+00	1.38509E+00	1.46641E-06
1.32727E+00	1.38509E+00	1.24457E-06
1.33059E+00	1.38508E+00	1.35708E-06
1.33393E+00	1.38508E+00	1.44373E-06
1.33728E+00	1.38508E+00	1.70772E-06
1.34066E+00	1.38507E+00	1.72651E-06
1.34404E+00	1.38507E+00	1.59151E-06
1.34745E+00	1.38506E+00	1.89576E-06
1.35087E+00	1.38506E+00	2.21624E-06
1.35431E+00	1.38506E+00	2.86185E-06
1.35777E+00	1.38505E+00	4.63476E-06
1.36124E+00	1.38505E+00	5.34953E-06
1.36474E+00	1.38505E+00	5.32058E-06
1.36825E+00	1.38504E+00	6.29180E-06
1.37178E+00	1.38504E+00	7.81688E-06
1.37533E+00	1.38503E+00	9.27570E-06
1.37889E+00	1.38503E+00	1.05734E-05
1.38248E+00	1.38503E+00	1.09767E-05
1.38608E+00	1.38502E+00	1.33097E-05
1.38970E+00	1.38502E+00	1.70138E-05
1.39334E+00	1.38502E+00	1.81740E-05
1.39700E+00	1.38502E+00	1.46366E-05
1.40068E+00	1.38502E+00	1.32119E-05
1.40438E+00	1.38501E+00	1.34458E-05
1.40810E+00	1.38501E+00	1.48719E-05
1.41184E+00	1.38501E+00	1.70061E-05
1.41559E+00	1.38501E+00	1.50267E-05
1.41937E+00	1.38500E+00	1.33482E-05
1.42317E+00	1.38500E+00	1.26903E-05
1.42699E+00	1.38500E+00	1.26012E-05
1.43083E+00	1.38499E+00	1.31977E-05
1.43469E+00	1.38499E+00	1.25868E-05
1.43857E+00	1.38499E+00	1.14805E-05
1.44247E+00	1.38498E+00	1.05633E-05
1.44639E+00	1.38498E+00	9.55098E-06
1.45034E+00	1.38498E+00	8.64499E-06
1.45430E+00	1.38497E+00	7.75870E-06
1.45829E+00	1.38497E+00	7.10889E-06
1.46230E+00	1.38496E+00	6.96831E-06
1.46633E+00	1.38496E+00	6.48319E-06
1.47039E+00	1.38495E+00	5.96120E-06
1.47446E+00	1.38495E+00	5.41794E-06
1.47856E+00	1.38494E+00	5.01129E-06
1.48269E+00	1.38494E+00	4.93391E-06
1.48683E+00	1.38493E+00	4.55037E-06
1.49100E+00	1.38493E+00	4.51134E-06
1.49519E+00	1.38492E+00	4.17904E-06
1.49941E+00	1.38492E+00	4.13794E-06
1.50365E+00	1.38491E+00	4.16539E-06
1.50791E+00	1.38491E+00	3.98701E-06
1.51220E+00	1.38490E+00	3.90622E-06
1.51651E+00	1.38490E+00	3.86527E-06
1.52085E+00	1.38489E+00	3.68237E-06
1.52521E+00	1.38489E+00	3.73823E-06
1.52959E+00	1.38488E+00	3.57696E-06
1.53401E+00	1.38488E+00	3.45816E-06
1.53844E+00	1.38487E+00	3.21696E-06
1.54291E+00	1.38487E+00	2.70549E-06
1.54740E+00	1.38486E+00	2.27880E-06
1.55191E+00	1.38485E+00	1.89753E-06
1.55645E+00	1.38485E+00	1.65712E-06
1.56102E+00	1.38484E+00	1.37699E-06
1.56562E+00	1.38483E+00	1.15026E-06
1.57024E+00	1.38483E+00	1.27835E-06
1.57489E+00	1.38482E+00	1.13843E-06
1.57957E+00	1.38481E+00	1.10789E-06
1.58427E+00	1.38481E+00	1.20762E-06
1.58901E+00	1.38480E+00	1.15367E-06
1.59377E+00	1.38479E+00	1.27109E-06
1.59856E+00	1.38479E+00	1.18737E-06
1.60338E+00	1.38478E+00	1.21680E-06
1.60823E+00	1.38477E+00	1.36627E-06
1.61310E+00	1.38476E+00	1.38068E-06
1.61801E+00	1.38476E+00	1.75189E-06
1.62295E+00	1.38475E+00	2.11556E-06
1.62792E+00	1.38474E+00	2.62959E-06
1.63292E+00	1.38473E+00	3.08399E-06
1.63794E+00	1.38472E+00	3.22065E-06
1.64300E+00	1.38471E+00	3.51766E-06
1.64810E+00	1.38470E+00	3.70864E-06
1.65322E+00	1.38469E+00	3.93849E-06
1.65837E+00	1.38468E+00	4.55321E-06
1.66356E+00	1.38467E+00	5.19160E-06
1.66878E+00	1.38466E+00	6.51200E-06
1.67403E+00	1.38464E+00	8.40561E-06
1.67932E+00	1.38462E+00	1.18951E-05
1.68464E+00	1.38460E+00	2.16697E-05
1.68999E+00	1.38458E+00	5.77800E-05
1.69538E+00	1.38459E+00	6.39878E-05
1.70080E+00	1.38458E+00	8.97430E-05
1.70626E+00	1.38460E+00	9.80299E-05
1.71175E+00	1.38459E+00	9.96011E-05
1.71728E+00	1.38458E+00	1.23349E-04
1.72284E+00	1.38461E+00	1.48078E-04
1.72844E+00	1.38464E+00	1.44930E-04
1.73408E+00	1.38466E+00	1.14218E-04
1.73975E+00	1.38465E+00	8.21610E-05
1.74546E+00	1.38462E+00	7.02782E-05
1.75121E+00	1.38460E+00	7.47048E-05
1.75699E+00	1.38459E+00	9.69089E-05
1.76282E+00	1.38461E+00	1.12342E-04
1.76868E+00	1.38463E+00	8.56905E-05
1.77458E+00	1.38461E+00	6.30763E-05
1.78052E+00	1.38460E+00	5.12146E-05
1.78650E+00	1.38458E+00	4.49482E-05
1.79252E+00	1.38456E+00	4.45085E-05
1.79859E+00	1.38455E+00	4.60797E-05
1.80469E+00	1.38454E+00	4.42955E-05
1.81083E+00	1.38453E+00	4.44361E-05
1.81702E+00	1.38452E+00	4.47671E-05
1.82325E+00	1.38451E+00	4.44779E-05
1.82952E+00	1.38450E+00	4.26491E-05
1.83584E+00	1.38450E+00	3.74953E-05
1.84220E+00	1.38448E+00	3.23833E-05
1.84860E+00	1.38447E+00	2.97233E-05
1.85505E+00	1.38446E+00	2.46975E-05
1.86154E+00	1.38444E+00	2.08868E-05
1.86808E+00	1.38443E+00	1.99635E-05
1.87466E+00	1.38441E+00	1.95989E-05
1.88130E+00	1.38440E+00	2.02520E-05
1.88797E+00	1.38438E+00	2.12272E-05
1.89470E+00	1.38437E+00	2.18825E-05
1.90147E+00	1.38435E+00	2.13662E-05
1.90830E+00	1.38434E+00	2.11491E-05
1.91517E+00	1.38432E+00	2.26345E-05
1.92209E+00	1.38431E+00	2.27373E-05
1.92906E+00	1.38430E+00	2.21464E-05
1.93609E+00	1.38428E+00	2.23834E-05
1.94316E+00	1.38426E+00	2.27276E-05
1.95029E+00	1.38425E+00	2.29980E-05
1.95746E+00	1.38423E+00	2.26490E-05
1.96469E+00	1.38422E+00	2.22910E-05
1.97198E+00	1.38420E+00	2.26454E-05
1.97932E+00	1.38418E+00	2.24272E-05
1.98671E+00	1.38417E+00	2.32524E-05
1.99416E+00	1.38415E+00	2.43522E-05
2.00167E+00	1.38413E+00	2.53208E-05
2.00923E+00	1.38411E+00	2.60397E-05
2.01685E+00	1.38410E+00	2.41169E-05
2.02453E+00	1.38408E+00	2.31131E-05
2.03226E+00	1.38406E+00	2.30928E-05
2.04006E+00	1.38404E+00	2.29791E-05
2.04792E+00	1.38402E+00	2.28919E-05
2.05583E+00	1.38400E+00	2.21854E-05
2.06381E+00	1.38398E+00	2.05483E-05
2.07185E+00	1.38395E+00	1.99084E-05
2.07995E+00	1.38393E+00	1.93234E-05
2.08812E+00	1.38390E+00	1.95895E-05
2.09635E+00	1.38388E+00	1.97236E-05
2.10465E+00	1.38385E+00	1.91018E-05
2.11301E+00	1.38383E+00	1.85276E-05
2.12144E+00	1.38380E+00	1.73170E-05
2.12993E+00	1.38377E+00	1.71770E-05
2.13850E+00	1.38374E+00	1.74254E-05
2.14713E+00	1.38370E+00	1.82153E-05
2.15583E+00	1.38367E+00	1.97553E-05
2.16461E+00	1.38363E+00	2.14232E-05
2.17346E+00	1.38360E+00	2.38722E-05
2.18237E+00	1.38356E+00	2.68398E-05
2.19137E+00	1.38351E+00	3.03930E-05
2.20043E+00	1.38347E+00	3.32294E-05
2.20958E+00	1.38342E+00	3.62974E-05
2.21879E+00	1.38337E+00	4.15116E-05
2.22809E+00	1.38330E+00	4.96761E-05
2.23746E+00	1.38323E+00	6.09073E-05
2.24692E+00	1.38314E+00	8.24926E-05
2.25645E+00	1.38302E+00	1.42830E-04
2.26606E+00	1.38291E+00	2.86025E-04
2.27576E+00	1.38297E+00	4.20994E-04
2.28554E+00	1.38296E+00	4.74843E-04
2.29541E+00	1.38282E+00	5.53447E-04
2.30536E+00	1.38286E+00	1.08052E-03
2.31539E+00	1.38349E+00	7.14538E-04
2.32552E+00	1.38328E+00	5.79640E-04
2.33573E+00	1.38309E+00	5.95456E-04
2.34603E+00	1.38322E+00	8.81443E-04
2.35643E+00	1.38341E+00	5.58176E-04
2.36692E+00	1.38325E+00	5.36726E-04
2.37750E+00	1.38321E+00	5.52001E-04
2.38817E+00	1.38318E+00	6.00972E-04
2.39895E+00	1.38319E+00	6.08436E-04
2.40982E+00	1.38322E+00	5.59920E-04
2.42078E+00	1.38315E+00	5.51188E-04
2.43185E+00	1.38313E+00	5.33939E-04
2.44302E+00	1.38310E+00	5.69310E-04
2.45430E+00	1.38309E+00	6.44544E-04
2.46568E+00	1.38327E+00	5.37447E-04
2.47716E+00	1.38316E+00	3.57465E-04
2.48875E+00	1.38301E+00	3.70267E-04
2.50046E+00	1.38302E+00	3.92123E-04
2.51227E+00	1.38302E+00	2.83556E-04
2.52419E+00	1.38287E+00	2.20952E-04
2.53623E+00	1.38277E+00	2.27435E-04
2.54838E+00	1.38270E+00	2.33037E-04
2.56065E+00	1.38263E+00	2.27033E-04
2.57304E+00	1.38255E+00	2.04490E-04
2.58555E+00	1.38245E+00	1.98131E-04
2.59818E+00	1.38236E+00	2.30441E-04
2.61094E+00	1.38232E+00	2.21462E-04
2.62382E+00	1.38223E+00	2.08593E-04
2.63683E+00	1.38214E+00	1.88999E-04
2.64997E+00	1.38204E+00	2.11280E-04
2.66324E+00	1.38197E+00	1.96777E-04
2.67664E+00	1.38186E+00	1.79108E-04
2.69018E+00	1.38175E+00	1.83677E-04
2.70386E+00	1.38164E+00	1.86203E-04
2.71767E+00	1.38154E+00	1.98510E-04
2.73163E+00	1.38143E+00	1.95047E-04
2.74573E+00	1.38132E+00	1.98707E-04
2.75998E+00	1.38121E+00	2.10499E-04
2.77438E+00	1.38114E+00	1.94549E-04
2.78893E+00	1.38098E+00	1.05012E-04
2.80363E+00	1.38080E+00	7.72597E-05
2.81849E+00	1.38061E+00	6.18284E-05
2.83351E+00	1.38041E+00	5.63985E-05
2.84869E+00	1.38021E+00	5.65648E-05
2.86403E+00	1.37999E+00	6.24597E-05
2.87953E+00	1.37977E+00	7.50368E-05
2.89521E+00	1.37953E+00	9.05118E-05
2.91106E+00	1.37929E+00	1.06276E-04
2.92708E+00	1.37903E+00	1.23841E-04
2.94328E+00	1.37876E+00	1.36309E-04
2.95966E+00	1.37848E+00	1.41338E-04
2.97622E+00	1.37816E+00	1.42935E-04
2.99297E+00	1.37781E+00	1.41318E-04
3.00991E+00	1.37741E+00	1.38237E-04
3.02704E+00	1.37698E+00	1.39610E-04
3.04437E+00	1.37649E+00	1.43836E-04
3.06189E+00	1.37594E+00	1.66405E-04
3.07963E+00	1.37533E+00	2.16893E-04
3.09756E+00	1.37465E+00	2.80009E-04
3.11571E+00	1.37392E+00	4.24185E-04
3.13407E+00	1.37323E+00	5.40988E-04
3.15265E+00	1.37237E+00	5.11647E-04
3.17145E+00	1.37133E+00	4.51174E-04
3.19047E+00	1.36998E+00	4.39731E-04
3.20973E+00	1.36827E+00	4.03915E-04
3.22922E+00	1.36624E+00	5.54758E-04
3.24895E+00	1.36368E+00	7.19824E-04
3.26892E+00	1.36042E+00	1.10168E-03
3.28913E+00	1.35600E+00	1.66481E-03
3.30960E+00	1.34973E+00	2.59163E-03
3.33033E+00	1.33940E+00	4.41467E-03
3.35131E+00	1.31825E+00	1.07830E-02
3.37256E+00	1.28332E+00	8.43078E-02
3.39409E+00	1.35040E+00	5.68523E-02
3.41589E+00	1.36031E+00	1.60021E-01
3.43797E+00	1.45160E+00	6.46785E-02
3.46034E+00	1.42307E+00	3.19463E-02
3.48300E+00	1.41133E+00	5.12846E-02
3.50596E+00	1.45404E+00	7.31934E-02
3.52923E+00	1.44083E+00	1.09737E-02
3.55280E+00	1.42528E+00	5.06980E-03
3.57670E+00	1.41722E+00	3.18469E-03
3.60092E+00	1.41214E+00	2.06569E-03
3.62546E+00	1.40806E+00	1.64604E-03
3.65035E+00	1.40507E+00	1.89277E-03
3.67558E+00	1.40385E+00	1.63361E-03
3.70115E+00	1.40198E+00	1.23617E-03
3.72709E+00	1.40036E+00	1.46645E-03
3.75340E+00	1.39978E+00	1.73614E-03
3.78007E+00	1.39895E+00	1.16708E-03
3.80713E+00	1.39800E+00	1.16149E-03
3.83458E+00	1.39732E+00	1.00397E-03
3.86243E+00	1.39686E+00	9.26760E-04
3.89069E+00	1.39623E+00	6.22492E-04
3.91936E+00	1.39561E+00	4.49834E-04
3.94846E+00	1.39501E+00	4.22332E-04
3.97800E+00	1.39458E+00	3.52959E-04
4.00797E+00	1.39412E+00	2.56412E-04
4.03841E+00	1.39366E+00	2.12420E-04
4.06931E+00	1.39321E+00	1.96244E-04
4.10069E+00	1.39284E+00	2.83227E-04
4.13255E+00	1.39252E+00	3.59170E-04
4.16491E+00	1.39236E+00	3.76622E-04
4.19779E+00	1.39205E+00	3.31619E-04
4.23118E+00	1.39181E+00	3.54515E-04
4.26512E+00	1.39160E+00	4.11397E-04
4.29960E+00	1.39153E+00	3.97135E-04
4.33464E+00	1.39133E+00	3.18253E-04
4.37026E+00	1.39110E+00	2.56950E-04
4.40647E+00	1.39089E+00	2.74083E-04
4.44329E+00	1.39074E+00	2.70680E-04
4.48072E+00	1.39057E+00	2.36565E-04
4.51879E+00	1.39040E+00	2.44715E-04
4.55752E+00	1.39023E+00	2.32175E-04
4.59691E+00	1.39010E+00	2.56425E-04
4.63699E+00	1.38998E+00	2.31553E-04
4.67778E+00	1.38987E+00	1.70819E-04
4.71929E+00	1.38969E+00	1.49922E-04
4.76154E+00	1.38954E+00	1.22933E-04
4.80455E+00	1.38936E+00	1.35142E-04
4.84835E+00	1.38919E+00	1.51720E-04
4.89296E+00	1.38904E+00	2.39466E-04
4.93840E+00	1.38904E+00	3.07393E-04
4.98468E+00	1.38899E+00	1.20496E-04
5.03184E+00	1.38878E+00	8.34580E-05
5.07991E+00	1.38862E+00	8.18995E-05
5.12890E+00	1.38846E+00	8.98795E-05
5.17884E+00	1.38831E+00	1.24652E-04
5.22977E+00	1.38819E+00	9.31805E-05
5.28171E+00	1.38801E+00	1.47516E-04
5.33469E+00	1.38794E+00	1.19612E-04
5.38874E+00	1.38775E+00	9.15466E-05
5.44390E+00	1.38757E+00	8.13205E-05
5.50020E+00	1.38737E+00	9.96647E-05
5.55768E+00	1.38718E+00	1.14280E-04
5.61637E+00	1.38701E+00	1.46017E-04
5.67631E+00	1.38677E+00	1.58895E-04
5.73755E+00	1.38656E+00	2.22782E-04
5.80013E+00	1.38631E+00	2.62688E-04
5.86408E+00	1.38608E+00	3.25626E-04
5.92946E+00	1.38586E+00	4.00879E-04
5.99631E+00	1.38560E+00	3.82512E-04
6.06469E+00	1.38524E+00	3.98933E-04
6.13465E+00	1.38478E+00	4.39924E-04
6.20624E+00	1.38428E+00	5.13894E-04
6.27952E+00	1.38367E+00	6.22699E-04
6.35455E+00	1.38289E+00	7.08942E-04
6.43139E+00	1.38182E+00	9.20601E-04
6.51012E+00	1.38030E+00	1.25617E-03
6.59080E+00	1.37806E+00	1.82435E-03
6.67350E+00	1.37376E+00	3.01632E-03
6.75831E+00	1.36089E+00	8.92763E-03
6.84530E+00	1.38929E+00	4.69785E-02
6.93455E+00	1.40639E+00	1.60649E-02
7.02617E+00	1.39863E+00	5.65577E-03
7.12023E+00	1.39248E+00	4.47605E-03
7.21686E+00	1.38299E+00	1.04248E-02
7.31613E+00	1.40104E+00	6.18789E-03
7.41818E+00	1.39547E+00	3.68646E-03
7.52312E+00	1.39547E+00	2.49404E-03
7.63107E+00	1.39304E+00	3.31988E-03
7.74216E+00	1.39405E+00	3.07790E-03
7.85653E+00	1.39279E+00	2.21730E-03
7.97433E+00	1.39323E+00	1.85154E-03
8.09572E+00	1.39209E+00	1.16353E-03
8.22086E+00	1.39213E+00	1.23375E-03
8.34993E+00	1.39162E+00	1.53683E-03
8.48312E+00	1.39132E+00	8.23633E-04
8.62063E+00	1.39041E+00	9.34956E-04
8.76267E+00	1.38987E+00	1.84142E-03
8.90946E+00	1.39096E+00	9.71164E-04
9.06126E+00	1.38956E+00	7.60169E-04
9.21832E+00	1.38841E+00	3.45988E-03
9.38092E+00	1.39113E+00	2.46941E-03
9.54937E+00	1.39065E+00	1.73602E-03
9.72397E+00	1.39051E+00	1.74122E-03
9.90507E+00	1.39009E+00	1.04268E-03
1.00931E+01	1.38947E+00	1.05276E-03
1.02883E+01	1.38848E+00	2.29303E-03
1.04913E+01	1.39045E+00	1.86160E-03
1.07024E+01	1.38903E+00	8.93685E-04
1.09222E+01	1.38837E+00	3.79637E-03
1.11512E+01	1.38866E+00	2.93971E-03
1.13900E+01	1.39018E+00	5.25389E-03
1.16393E+01	1.39141E+00	1.73690E-03
1.18997E+01	1.39038E+00	1.28097E-03
1.21721E+01	1.38905E+00	9.74294E-04
1.24572E+01	1.38805E+00	1.33954E-03
1.27560E+01	1.38700E+00	1.98223E-03
1.30694E+01	1.38669E+00	7.10495E-03
1.33987E+01	1.38655E+00	5.31468E-03
1.37450E+01	1.38364E+00	1.31435E-02
1.41097E+01	1.40206E+00	4.91663E-03
1.44942E+01	1.39665E+00	9.97173E-04
1.49003E+01	1.39462E+00	4.09590E-04
1.53298E+01	1.39358E+00	2.40061E-04
1.57848E+01	1.39287E+00	1.24546E-04
1.62676E+01	1.39239E+00	7.20737E-05
1.67809E+01	1.39197E+00	7.01852E-05
1.73276E+01	1.39166E+00	5.74396E-05
1.79112E+01	1.39136E+00	9.63948E-05
1.85354E+01	1.39104E+00	1.55301E-04
1.92048E+01	1.39086E+00	4.21591E-04
1.99242E+01	1.39065E+00	6.82318E-04
2.06997E+01	1.39088E+00	4.70487E-04
2.15380E+01	1.39059E+00	6.92204E-04
2.24471E+01	1.39060E+00	9.54420E-04
2.34363E+01	1.39072E+00	1.58243E-03
2.45167E+01	1.39164E+00	2.17551E-03
